#	Name: ASD01230550
#	Creating user name:	WinNT
#	Creation time:	15. 06. 2019 19:14

#	Modifying user name:	WinNT
#	Modification time:	15. 06. 2019 19:14

#	Program:	/corina/corina34_cracker 3.40 0067  02.08.2006

@<TRIPOS>MOLECULE
ASD01230550
  53   57    0    0    0
SMALL
NO_CHARGES


@<TRIPOS>ATOM
   1 S1             0.9599     0.9556     0.1050 S.o2    
   2 N2             0.6189    -0.6498    -0.1057 N.am    
   3 C3             1.3850    -1.4401    -0.8180 C.2     
   4 N4             2.5289    -1.0654    -1.4633 N.pl3   
   5 C5             3.0327     0.3099    -1.5038 C.3     
   6 C6             2.7574     1.0234    -0.1770 C.3     
   7 C7             0.9495    -2.8499    -0.9117 C.2     
   8 C8             1.7266    -3.7470    -1.6116 C.2     
   9 C9             2.9074    -3.2953    -2.2171 C.2     
  10 C10            3.2745    -2.0053    -2.1307 C.2     
  11 C11           -0.3051    -3.2920    -0.2615 C.ar    
  12 C12           -0.2626    -4.2080     0.7902 C.ar    
  13 C13           -1.4331    -4.6171     1.3936 C.ar    
  14 C14           -2.6528    -4.1191     0.9555 C.ar    
  15 C15           -2.6990    -3.2075    -0.0907 C.ar    
  16 C16           -1.5324    -2.7894    -0.6952 C.ar    
  17 O17           -3.8044    -4.5252     1.5520 O.3     
  18 O18           -4.5159    -8.4335     5.5079 O.3     
  19 C19           -5.8392    -8.9199     5.7999 C.3     
  20 C20           -6.7430    -8.3063     4.7077 C.3     
  21 O21           -5.8053    -7.9944     3.6479 O.3     
  22 C22           -4.6271    -7.5761     4.3633 C.3     
  23 C23           -4.7819    -6.1240     4.8083 C.3     
  24 C24           -4.9210    -5.2244     3.5779 C.3     
  25 C25           -3.6786    -5.3709     2.6970 C.3     
  26 C26           -3.5418    -6.8258     2.2437 C.3     
  27 C27           -3.3988    -7.7302     3.4702 C.3     
  28 O28            0.2597     1.6105    -0.9439 O.2     
  29 O29            0.6534     1.2102     1.4689 O.2     
  30 H30            4.1071     0.2939    -1.6872 H       
  31 H31            2.5388     0.8500    -2.3116 H       
  32 H32            3.0849     2.0612    -0.2385 H       
  33 H33            3.2800     0.5154     0.6334 H       
  34 H34            1.4307    -4.7825    -1.6920 H       
  35 H35            3.5294    -3.9920    -2.7593 H       
  36 H36            4.1938    -1.6955    -2.6054 H       
  37 H37            0.6857    -4.5963     1.1310 H       
  38 H38           -1.4010    -5.3260     2.2077 H       
  39 H39           -3.6497    -2.8223    -0.4288 H       
  40 H40           -1.5688    -2.0772    -1.5062 H       
  41 H41           -5.8633   -10.0082     5.7438 H       
  42 H42           -6.1568    -8.5837     6.7869 H       
  43 H43           -7.4826    -9.0309     4.3672 H       
  44 H44           -7.2280    -7.4008     5.0723 H       
  45 H45           -5.6713    -6.0278     5.4311 H       
  46 H46           -3.9039    -5.8239     5.3803 H       
  47 H47           -5.8049    -5.5176     3.0113 H       
  48 H48           -5.0208    -4.1866     3.8958 H       
  49 H49           -2.7943    -5.0832     3.2656 H       
  50 H50           -4.4285    -7.1156     1.6798 H       
  51 H51           -2.6596    -6.9281     1.6118 H       
  52 H52           -2.5062    -7.4472     4.0281 H       
  53 H53           -3.3118    -8.7679     3.1481 H       
@<TRIPOS>BOND
   1    1    2 am
   2    1    6 1
   3    1   28 2
   4    1   29 2
   5    2    3 2
   6    3    4 1
   7    3    7 1
   8    4    5 1
   9    4   10 1
  10    5    6 1
  11    5   30 1
  12    5   31 1
  13    6   32 1
  14    6   33 1
  15    7    8 2
  16    7   11 1
  17    8    9 1
  18    8   34 1
  19    9   10 2
  20    9   35 1
  21   10   36 1
  22   11   12 ar
  23   11   16 ar
  24   12   13 ar
  25   12   37 1
  26   13   14 ar
  27   13   38 1
  28   14   15 ar
  29   14   17 1
  30   15   16 ar
  31   15   39 1
  32   16   40 1
  33   17   25 1
  34   18   19 1
  35   18   22 1
  36   19   20 1
  37   19   41 1
  38   19   42 1
  39   20   21 1
  40   20   43 1
  41   20   44 1
  42   21   22 1
  43   22   23 1
  44   22   27 1
  45   23   24 1
  46   23   45 1
  47   23   46 1
  48   24   25 1
  49   24   47 1
  50   24   48 1
  51   25   26 1
  52   25   49 1
  53   26   27 1
  54   26   50 1
  55   26   51 1
  56   27   52 1
  57   27   53 1

#	End of record

