#	Name: ASD01180365
#	Creating user name:	WinNT
#	Creation time:	15. 06. 2019 19:07

#	Modifying user name:	WinNT
#	Modification time:	15. 06. 2019 19:07

#	Program:	/corina/corina34_cracker 3.40 0067  02.08.2006

@<TRIPOS>MOLECULE
ASD01180365
  56   58    0    0    0
SMALL
NO_CHARGES


@<TRIPOS>ATOM
   1 C1            -0.0029     1.9883    -0.0475 C.ar    
   2 C2            -0.1222     0.6015     0.0456 C.ar    
   3 N3             1.2042     2.5512    -0.0979 N.ar    
   4 N4             0.9607    -0.1526     0.0839 N.ar    
   5 C5             2.1630     0.4092     0.0337 C.ar    
   6 C6             2.2821     1.7997    -0.0597 C.ar    
   7 C7            -1.2141     2.8322    -0.0965 C.2     
   8 O8            -2.3143     2.3186    -0.0557 O.2     
   9 O9            -1.0988     4.1715    -0.1865 O.3     
  10 N10            3.2980    -0.3812     0.0738 N.pl3   
  11 C11            4.6207     0.2278    -0.0866 C.3     
  12 C12            5.1263     0.7146     1.2729 C.3     
  13 C13            6.4504     1.4586     1.0881 C.3     
  14 C14            6.2084     2.7387     0.2858 C.3     
  15 C15            7.3408    -2.6683    -1.6656 C.ar    
  16 C16            7.3853    -1.3498    -2.1140 C.ar    
  17 C17            6.5050    -0.4189    -1.6006 C.ar    
  18 C18            5.5796    -0.7930    -0.6430 C.ar    
  19 C19            5.5313    -2.1004    -0.1940 C.ar    
  20 C20            6.4068    -3.0395    -0.7005 C.ar    
  21 C21            8.2806    -3.6749    -2.2183 C.ar    
  22 C22            8.2361    -4.9934    -1.7699 C.ar    
  23 C23            9.1126    -5.9256    -2.2874 C.ar    
  24 C24           10.0342    -5.5528    -3.2491 C.ar    
  25 C25           10.0831    -4.2452    -3.6975 C.ar    
  26 C26            9.2069    -3.3064    -3.1917 C.ar    
  27 C27           10.9890    -6.5750    -3.8100 C.3     
  28 F28           10.4145    -7.1840    -4.9308 F       
  29 F29           12.1815    -5.9447    -4.1816 F       
  30 F30           11.2574    -7.5450    -2.8383 F       
  31 C31            7.0295     1.8171     2.4581 C.3     
  32 C32           -2.3313     4.9378    -0.2302 C.3     
  33 H33           -1.1001     0.1450     0.0868 H       
  34 H34            3.2601     2.2562    -0.1006 H       
  35 H35            3.2179    -1.3385     0.2081 H       
  36 H36            4.5511     1.0725    -0.7720 H       
  37 H37            4.3906     1.3865     1.7148 H       
  38 H38            5.2789    -0.1406     1.9313 H       
  39 H39            7.1535     0.8212     0.5519 H       
  40 H40            5.5350     3.3927     0.8396 H       
  41 H41            7.1573     3.2493     0.1214 H       
  42 H42            5.7606     2.4859    -0.6753 H       
  43 H43            8.1075    -1.0567    -2.8616 H       
  44 H44            6.5387     0.6033    -1.9474 H       
  45 H45            4.8069    -2.3870     0.5541 H       
  46 H46            6.3678    -4.0602    -0.3497 H       
  47 H47            7.5173    -5.2854    -1.0186 H       
  48 H48            9.0789    -6.9478    -1.9406 H       
  49 H49           10.8050    -3.9595    -4.4483 H       
  50 H50            9.2425    -2.2868    -3.5462 H       
  51 H51            7.2019     0.9052     3.0297 H       
  52 H52            7.9728     2.3472     2.3264 H       
  53 H53            6.3264     2.4545     2.9943 H       
  54 H54           -2.0966     5.9998    -0.3025 H       
  55 H55           -2.9167     4.6352    -1.0985 H       
  56 H56           -2.9060     4.7537     0.6775 H       
@<TRIPOS>BOND
   1    1    2 ar
   2    1    3 ar
   3    1    7 1
   4    2    4 ar
   5    2   33 1
   6    3    6 ar
   7    4    5 ar
   8    5    6 ar
   9    5   10 1
  10    6   34 1
  11    7    8 2
  12    7    9 1
  13    9   32 1
  14   10   11 1
  15   10   35 1
  16   11   12 1
  17   11   18 1
  18   11   36 1
  19   12   13 1
  20   12   37 1
  21   12   38 1
  22   13   14 1
  23   13   31 1
  24   13   39 1
  25   14   40 1
  26   14   41 1
  27   14   42 1
  28   15   16 ar
  29   15   20 ar
  30   15   21 1
  31   16   17 ar
  32   16   43 1
  33   17   18 ar
  34   17   44 1
  35   18   19 ar
  36   19   20 ar
  37   19   45 1
  38   20   46 1
  39   21   22 ar
  40   21   26 ar
  41   22   23 ar
  42   22   47 1
  43   23   24 ar
  44   23   48 1
  45   24   25 ar
  46   24   27 1
  47   25   26 ar
  48   25   49 1
  49   26   50 1
  50   27   28 1
  51   27   29 1
  52   27   30 1
  53   31   51 1
  54   31   52 1
  55   31   53 1
  56   32   54 1
  57   32   55 1
  58   32   56 1

#	End of record

