#	Name: ASD01883877
#	Creating user name:	WinNT
#	Creation time:	15. 06. 2019 19:47

#	Modifying user name:	WinNT
#	Modification time:	15. 06. 2019 19:47

#	Program:	/corina/corina34_cracker 3.40 0067  02.08.2006

@<TRIPOS>MOLECULE
ASD01883877
  54   56    0    0    0
SMALL
NO_CHARGES


@<TRIPOS>ATOM
   1 C1             0.5568     1.4172    -1.0309 C.ar    
   2 C2             0.6657     0.0653    -1.1812 C.ar    
   3 C3             1.8834    -0.5748    -0.9142 C.ar    
   4 C4             2.9905     0.1832    -0.4913 C.ar    
   5 C5             2.8645     1.5534    -0.3436 C.ar    
   6 C6             1.6507     2.1702    -0.6126 C.ar    
   7 C7             2.0028    -2.0261    -1.0742 C.2     
   8 O8             3.0586    -2.5772    -0.8423 O.2     
   9 C9             0.8144    -2.8345    -1.5270 C.3     
  10 O10            4.1739    -0.4251    -0.2296 O.3     
  11 C11            4.0440     2.3748     0.1094 C.3     
  12 C12            4.8420     2.8376    -1.1112 C.3     
  13 C13            6.0395     3.6716    -0.6514 C.3     
  14 O14            1.5296     3.5136    -0.4675 O.3     
  15 C15            0.2533     4.0854    -0.7611 C.3     
  16 C16            0.3088     5.5758    -0.5451 C.ar    
  17 C17            0.0592     7.4706     0.8974 C.ar    
  18 C18            0.0087     6.1048     0.6966 C.ar    
  19 C19            0.6654     6.4114    -1.5874 C.ar    
  20 C20            0.7179     7.7778    -1.3918 C.ar    
  21 C21            0.4121     8.3117    -0.1482 C.ar    
  22 O22            0.4626     9.6556     0.0467 O.3     
  23 C23           -0.5534    10.4077    -0.4410 C.ar    
  24 N24           -1.6025     9.8118    -0.9876 N.ar    
  25 C25           -0.4821    11.7948    -0.3552 C.ar    
  26 C26           -1.5198    12.5556    -0.8531 C.ar    
  27 C27           -2.6140    11.8938    -1.4306 C.ar    
  28 C28           -2.6143    10.4981    -1.4748 C.ar    
  29 C29           -3.7490    12.6604    -1.9775 C.2     
  30 O30           -4.7945    12.0144    -2.5298 O.3     
  31 O31           -3.7412    13.8744    -1.9301 O.2     
  32 H32           -0.3825     1.9067    -1.2421 H       
  33 H33           -0.1874    -0.5120    -1.5058 H       
  34 H34            0.8115    -2.8981    -2.6151 H       
  35 H35            0.8750    -3.8375    -1.1046 H       
  36 H36           -0.1030    -2.3527    -1.1888 H       
  37 H37            4.7612    -0.4887    -0.9951 H       
  38 H38            3.6899     3.2444     0.6630 H       
  39 H39            4.6825     1.7697     0.7528 H       
  40 H40            5.1960     1.9680    -1.6649 H       
  41 H41            4.2034     3.4428    -1.7547 H       
  42 H42            6.6780     3.0664    -0.0079 H       
  43 H43            6.6080     4.0013    -1.5210 H       
  44 H44            5.6854     4.5412    -0.0977 H       
  45 H45           -0.0076     3.8781    -1.7990 H       
  46 H46           -0.4995     3.6507    -0.1035 H       
  47 H47           -0.1756     7.8833     1.8674 H       
  48 H48           -0.2659     5.4497     1.5102 H       
  49 H49            0.9033     5.9954    -2.5553 H       
  50 H50            0.9971     8.4300    -2.2061 H       
  51 H51            0.3758    12.2705     0.0965 H       
  52 H52           -1.4908    13.6339    -0.7994 H       
  53 H53           -3.4525     9.9770    -1.9134 H       
  54 H54           -5.5149    12.5595    -2.8748 H       
@<TRIPOS>BOND
   1    1    2 ar
   2    1    6 ar
   3    1   32 1
   4    2    3 ar
   5    2   33 1
   6    3    4 ar
   7    3    7 1
   8    4    5 ar
   9    4   10 1
  10    5    6 ar
  11    5   11 1
  12    6   14 1
  13    7    8 2
  14    7    9 1
  15    9   34 1
  16    9   35 1
  17    9   36 1
  18   10   37 1
  19   11   12 1
  20   11   38 1
  21   11   39 1
  22   12   13 1
  23   12   40 1
  24   12   41 1
  25   13   42 1
  26   13   43 1
  27   13   44 1
  28   14   15 1
  29   15   16 1
  30   15   45 1
  31   15   46 1
  32   16   19 ar
  33   16   18 ar
  34   17   18 ar
  35   17   21 ar
  36   17   47 1
  37   18   48 1
  38   19   20 ar
  39   19   49 1
  40   20   21 ar
  41   20   50 1
  42   21   22 1
  43   22   23 1
  44   23   25 ar
  45   23   24 ar
  46   24   28 ar
  47   25   26 ar
  48   25   51 1
  49   26   27 ar
  50   26   52 1
  51   27   28 ar
  52   27   29 1
  53   28   53 1
  54   29   30 1
  55   29   31 2
  56   30   54 1

#	End of record

