#	Name: ASD03091596
#	Creating user name:	WinNT
#	Creation time:	15. 06. 2019 20:31

#	Modifying user name:	WinNT
#	Modification time:	15. 06. 2019 20:31

#	Program:	/corina/corina34_cracker 3.40 0067  02.08.2006

@<TRIPOS>MOLECULE
ASD03091596
  33   34    0    0    0
SMALL
NO_CHARGES


@<TRIPOS>ATOM
   1 C1            -0.0167     1.3827     0.0096 C.ar    
   2 C2             0.0021    -0.0041     0.0020 C.ar    
   3 C3             1.2055    -0.6803    -0.0131 C.ar    
   4 C4             2.4035     0.0173    -0.0208 C.ar    
   5 C5             2.4065     1.3940    -0.0134 C.ar    
   6 C6             1.1941     2.0942     0.0019 C.ar    
   7 C7             1.1886     3.5621     0.0094 C.2     
   8 O8             0.1359     4.1645     0.0222 O.2     
   9 C9             2.4908     4.3205     0.0010 C.3     
  10 C10            2.2056     5.8236     0.0112 C.3     
  11 C11            3.5078     6.5821     0.0029 C.ar    
  12 C12            4.1456     6.8515    -1.2000 C.ar    
  13 C13            4.0629     7.0136     1.1922 C.ar    
  14 C14            5.2565     7.7101     1.1877 C.ar    
  15 C15            5.9004     7.9778    -0.0118 C.ar    
  16 C16            5.3431     7.5496    -1.2071 C.ar    
  17 O17            3.5967     6.4310    -2.3699 O.3     
  18 O18           -1.1982     2.0482     0.0189 O.3     
  19 O19            7.0738     8.6632    -0.0156 O.3     
  20 H20           -0.9263    -0.5559     0.0083 H       
  21 H21            1.2138    -1.7602    -0.0186 H       
  22 H22            3.3391    -0.5220    -0.0323 H       
  23 H23            3.3424     1.9330    -0.0191 H       
  24 H24            3.0716     4.0549     0.8843 H       
  25 H25            3.0550     4.0638    -0.8956 H       
  26 H26            1.6247     6.0893    -0.8720 H       
  27 H27            1.6414     6.0803     0.9078 H       
  28 H28            3.5630     6.8065     2.1268 H       
  29 H29            5.6882     8.0467     2.1187 H       
  30 H30            5.8411     7.7599    -2.1421 H       
  31 H31            2.9936     7.0700    -2.7736 H       
  32 H32           -1.5366     2.2364     0.9049 H       
  33 H33            7.8578     8.1012     0.0522 H       
@<TRIPOS>BOND
   1    1    2 ar
   2    1    6 ar
   3    1   18 1
   4    2    3 ar
   5    2   20 1
   6    3    4 ar
   7    3   21 1
   8    4    5 ar
   9    4   22 1
  10    5    6 ar
  11    5   23 1
  12    6    7 1
  13    7    8 2
  14    7    9 1
  15    9   10 1
  16    9   24 1
  17    9   25 1
  18   10   11 1
  19   10   26 1
  20   10   27 1
  21   11   13 ar
  22   11   12 ar
  23   12   16 ar
  24   12   17 1
  25   13   14 ar
  26   13   28 1
  27   14   15 ar
  28   14   29 1
  29   15   16 ar
  30   15   19 1
  31   16   30 1
  32   17   31 1
  33   18   32 1
  34   19   33 1

#	End of record

