#	Name: ASD03240048
#	Creating user name:	WinNT
#	Creation time:	15. 06. 2019 20:34

#	Modifying user name:	WinNT
#	Modification time:	15. 06. 2019 20:34

#	Program:	/corina/corina34_cracker 3.40 0067  02.08.2006

@<TRIPOS>MOLECULE
ASD03240048
  63   68    0    0    0
SMALL
NO_CHARGES


@<TRIPOS>ATOM
   1 C1            -0.0169     1.3936     0.0097 C.ar    
   2 C2             0.0021    -0.0041     0.0020 C.ar    
   3 C3             1.1958     2.0928     0.0019 C.ar    
   4 C4             2.3796     1.3597    -0.0134 C.ar    
   5 C5             2.3112    -0.0440    -0.0202 C.ar    
   6 N6             1.1389    -0.6651    -0.0124 N.ar    
   7 C7             3.5609    -0.8383    -0.0364 C.ar    
   8 C8             3.6921     2.0494    -0.0227 C.ar    
   9 C9             3.9419     3.0656    -0.9436 C.ar    
  10 C10            5.1654     3.7040    -0.9477 C.ar    
  11 C11            6.1430     3.3370    -0.0404 C.ar    
  12 C12            5.9008     2.3293     0.8758 C.ar    
  13 C13            4.6788     1.6881     0.8932 C.ar    
  14 C14            3.6284    -2.0516     0.6484 C.ar    
  15 C15            4.7957    -2.7871     0.6296 C.ar    
  16 C16            5.8978    -2.3232    -0.0663 C.ar    
  17 C17            5.8372    -1.1203    -0.7471 C.ar    
  18 C18            4.6735    -0.3789    -0.7413 C.ar    
  19 C19            7.1697    -3.1312    -0.0823 C.3     
  20 N20            7.1466    -4.0582    -1.2217 N.3     
  21 C21            8.4578    -4.6916    -1.4115 C.3     
  22 C22            8.4383    -5.5353    -2.6881 C.3     
  23 C23            7.3469    -6.6030    -2.5718 C.3     
  24 C24            5.9990    -5.9192    -2.3263 C.3     
  25 C25            6.0893    -5.0644    -1.0601 C.3     
  26 C26            7.2826    -7.3987    -3.8499 C.2     
  27 N27            7.8933    -8.5289    -4.0559 N.2     
  28 C28            7.6214    -8.9729    -5.3099 C.ar    
  29 C29            6.7734    -8.0237    -5.9051 C.ar    
  30 N30            6.5727    -7.0429    -4.9545 N.pl3   
  31 C31            8.0052   -10.1032    -6.0365 C.ar    
  32 C32            7.5548   -10.2761    -7.3145 C.ar    
  33 C33            6.7172    -9.3389    -7.9028 C.ar    
  34 C34            6.3257    -8.2163    -7.2051 C.ar    
  35 C35           -1.2616     2.1015     0.0195 C.1     
  36 N36           -2.2491     2.6630     0.0272 N.1     
  37 H37           -0.9304    -0.5490     0.0084 H       
  38 H38            1.2128     3.1727     0.0072 H       
  39 H39            3.1796     3.3524    -1.6529 H       
  40 H40            5.3601     4.4914    -1.6607 H       
  41 H41            7.0993     3.8389    -0.0477 H       
  42 H42            6.6679     2.0467     1.5815 H       
  43 H43            4.4906     0.9018     1.6092 H       
  44 H44            2.7689    -2.4145     1.1925 H       
  45 H45            4.8492    -3.7267     1.1594 H       
  46 H46            6.7011    -0.7631    -1.2879 H       
  47 H47            4.6274     0.5599    -1.2732 H       
  48 H48            8.0245    -2.4614    -0.1761 H       
  49 H49            7.2521    -3.6977     0.8453 H       
  50 H50            9.2243    -3.9213    -1.4969 H       
  51 H51            8.6794    -5.3309    -0.5569 H       
  52 H52            8.2304    -4.8943    -3.5448 H       
  53 H53            9.4067    -6.0177    -2.8203 H       
  54 H54            7.5751    -7.2679    -1.7388 H       
  55 H55            5.7528    -5.2842    -3.1773 H       
  56 H56            5.2247    -6.6760    -2.2000 H       
  57 H57            6.3220    -5.7020    -0.2073 H       
  58 H58            5.1355    -4.5649    -0.8904 H       
  59 H59            6.0312    -6.2448    -5.0575 H       
  60 H60            8.6569   -10.8387    -5.5885 H       
  61 H61            7.8539   -11.1508    -7.8729 H       
  62 H62            6.3701    -9.4900    -8.9143 H       
  63 H63            5.6738    -7.4901    -7.6675 H       
@<TRIPOS>BOND
   1    1    2 ar
   2    1    3 ar
   3    1   35 1
   4    2    6 ar
   5    2   37 1
   6    3    4 ar
   7    3   38 1
   8    4    5 ar
   9    4    8 1
  10    5    6 ar
  11    5    7 1
  12    7   14 ar
  13    7   18 ar
  14    8    9 ar
  15    8   13 ar
  16    9   10 ar
  17    9   39 1
  18   10   11 ar
  19   10   40 1
  20   11   12 ar
  21   11   41 1
  22   12   13 ar
  23   12   42 1
  24   13   43 1
  25   14   15 ar
  26   14   44 1
  27   15   16 ar
  28   15   45 1
  29   16   17 ar
  30   16   19 1
  31   17   18 ar
  32   17   46 1
  33   18   47 1
  34   19   20 1
  35   19   48 1
  36   19   49 1
  37   20   21 1
  38   20   25 1
  39   21   22 1
  40   21   50 1
  41   21   51 1
  42   22   23 1
  43   22   52 1
  44   22   53 1
  45   23   24 1
  46   23   26 1
  47   23   54 1
  48   24   25 1
  49   24   55 1
  50   24   56 1
  51   25   57 1
  52   25   58 1
  53   26   27 2
  54   26   30 1
  55   27   28 1
  56   28   29 ar
  57   28   31 ar
  58   29   30 1
  59   29   34 ar
  60   30   59 1
  61   31   32 ar
  62   31   60 1
  63   32   33 ar
  64   32   61 1
  65   33   34 ar
  66   33   62 1
  67   34   63 1
  68   35   36 3

#	End of record

