#	Name: ASD03092192
#	Creating user name:	WinNT
#	Creation time:	15. 06. 2019 20:32

#	Modifying user name:	WinNT
#	Modification time:	15. 06. 2019 20:32

#	Program:	/corina/corina34_cracker 3.40 0067  02.08.2006

@<TRIPOS>MOLECULE
ASD03092192
  53   57    0    0    0
SMALL
NO_CHARGES


@<TRIPOS>ATOM
   1 N1             0.2711     0.9018    -0.4003 N.pl3   
   2 C2             0.0679    -0.3536     0.0910 C.2     
   3 C3            -1.2731    -0.4963     0.3074 C.2     
   4 C4            -1.8963     0.7023    -0.0622 C.2     
   5 N5            -0.9739     1.5385    -0.4797 N.2     
   6 C6             1.1087    -1.3741     0.3431 C.ar    
   7 C7             2.3437    -1.3191    -0.3131 C.ar    
   8 C8             3.2854    -2.2913    -0.0483 C.ar    
   9 N9             3.0342    -3.2625     0.8090 N.ar    
  10 C10            1.8835    -3.3514     1.4487 C.ar    
  11 C11            0.8879    -2.4181     1.2486 C.ar    
  12 C12            1.5629     1.4836    -0.7731 C.3     
  13 N13           -3.2695     0.9661     0.0067 N.pl3   
  14 C14           -3.7512     2.2478    -0.2822 C.ar    
  15 C15           -5.0313     2.4093    -0.7950 C.ar    
  16 C16           -5.5084     3.6748    -1.0802 C.ar    
  17 C17           -4.7113     4.7851    -0.8561 C.ar    
  18 C18           -3.4263     4.6264    -0.3418 C.ar    
  19 C19           -2.9509     3.3590    -0.0508 C.ar    
  20 O20           -2.8521     5.8583    -0.2145 O.3     
  21 O21           -4.9414     6.1177    -1.0507 O.3     
  22 C22           -3.9414     6.7982    -0.2696 C.3     
  23 F23           -4.4222     7.0692     1.0160 F       
  24 F24           -3.5407     7.9785    -0.9048 F       
  25 C25            1.7988     1.2800    -2.2476 C.2     
  26 N26            2.9314     1.7364    -2.8182 N.am    
  27 C27            3.1607     1.5384    -4.2515 C.3     
  28 C28            1.6565    -4.4845     2.4159 C.3     
  29 C29            4.6194    -2.2441    -0.7478 C.3     
  30 O30            0.9696     0.7054    -2.9207 O.2     
  31 C31            4.0963     2.5204    -4.9595 C.3     
  32 C32            4.5558     1.0865    -4.6879 C.3     
  33 H33           -1.7652    -1.3765     0.6939 H       
  34 H34            2.5559    -0.5275    -1.0164 H       
  35 H35           -0.0514    -2.4971     1.7756 H       
  36 H36            1.5589     2.5505    -0.5498 H       
  37 H37            2.3574     0.9970    -0.2074 H       
  38 H38           -3.8871     0.2604     0.2546 H       
  39 H39           -5.6548     1.5452    -0.9714 H       
  40 H40           -6.5045     3.7981    -1.4790 H       
  41 H41           -1.9552     3.2339     0.3484 H       
  42 H42            3.5946     2.1959    -2.2798 H       
  43 H43            2.3089     1.1589    -4.8159 H       
  44 H44            1.9813    -4.1828     3.4117 H       
  45 H45            0.5959    -4.7347     2.4400 H       
  46 H46            2.2281    -5.3556     2.0957 H       
  47 H47            5.3204    -1.6575    -0.1541 H       
  48 H48            5.0032    -3.2573    -0.8670 H       
  49 H49            4.4993    -1.7833    -1.7283 H       
  50 H50            3.8602     2.7866    -5.9898 H       
  51 H51            4.5411     3.3138    -4.3588 H       
  52 H52            5.3030     0.9366    -3.9086 H       
  53 H53            4.6220     0.4094    -5.5395 H       
@<TRIPOS>BOND
   1    1    2 1
   2    1   12 1
   3    1    5 1
   4    2    3 2
   5    2    6 1
   6    3    4 1
   7    3   33 1
   8    4    5 2
   9    4   13 1
  10    6    7 ar
  11    6   11 ar
  12    7    8 ar
  13    7   34 1
  14    8    9 ar
  15    8   29 1
  16    9   10 ar
  17   10   11 ar
  18   10   28 1
  19   11   35 1
  20   12   25 1
  21   12   36 1
  22   12   37 1
  23   13   14 1
  24   13   38 1
  25   14   15 ar
  26   14   19 ar
  27   15   16 ar
  28   15   39 1
  29   16   17 ar
  30   16   40 1
  31   17   18 ar
  32   17   21 1
  33   18   19 ar
  34   18   20 1
  35   19   41 1
  36   20   22 1
  37   21   22 1
  38   22   23 1
  39   22   24 1
  40   25   26 am
  41   25   30 2
  42   26   27 1
  43   26   42 1
  44   27   31 1
  45   27   32 1
  46   27   43 1
  47   28   44 1
  48   28   45 1
  49   28   46 1
  50   29   47 1
  51   29   48 1
  52   29   49 1
  53   31   32 1
  54   31   50 1
  55   31   51 1
  56   32   52 1
  57   32   53 1

#	End of record

