#	Name: ASD01150707
#	Creating user name:	WinNT
#	Creation time:	15. 06. 2019 19:04

#	Modifying user name:	WinNT
#	Modification time:	15. 06. 2019 19:04

#	Program:	/corina/corina34_cracker 3.40 0067  02.08.2006

@<TRIPOS>MOLECULE
ASD01150707
  44   48    0    0    0
SMALL
NO_CHARGES


@<TRIPOS>ATOM
   1 C1            -0.0077     1.2519    -0.4460 C.2     
   2 O2            -0.4562     1.1864    -1.5714 O.2     
   3 S3             5.3608     3.6784     0.5011 S.3     
   4 C4             3.7127     3.1261     0.2293 C.ar    
   5 N5             2.5739     3.8250     0.1511 N.ar    
   6 C6             1.4110     3.2620    -0.0577 C.ar    
   7 C7             1.2995     1.8732    -0.2129 C.ar    
   8 C8             2.4638     1.0850    -0.1407 C.ar    
   9 C9             3.7048     1.7367     0.0869 C.ar    
  10 C10            5.0343     1.1550     0.2001 C.2     
  11 C11            5.3191    -0.3375     0.0842 C.3     
  12 C12            6.8215    -0.5161    -0.1581 C.3     
  13 O13            7.5493     0.2646     0.7944 O.3     
  14 C14            7.4662     1.6755     0.5694 C.3     
  15 C15            6.0023     2.0496     0.4176 C.2     
  16 C16            2.3962    -0.3839    -0.2979 C.ar    
  17 C17            1.9996    -0.9412    -1.5147 C.ar    
  18 C18            1.9391    -2.3122    -1.6548 C.ar    
  19 C19            2.2701    -3.1345    -0.5923 C.ar    
  20 C20            2.6641    -2.5886     0.6165 C.ar    
  21 C21            2.7344    -1.2192     0.7681 C.ar    
  22 C22            0.1738     4.1192    -0.1326 C.3     
  23 C23           -0.7972     0.7001     0.7130 C.3     
  24 C24           -2.3159     0.6066     0.5526 C.3     
  25 C25           -1.4643    -0.6642     0.5277 C.3     
  26 H26            5.0327    -0.8400     1.0081 H       
  27 H27            4.7588    -0.7555    -0.7521 H       
  28 H28            7.0859    -1.5674    -0.0450 H       
  29 H29            7.0695    -0.1842    -1.1663 H       
  30 H30            7.8954     2.2086     1.4177 H       
  31 H31            8.0078     1.9349    -0.3403 H       
  32 H32            1.7402    -0.3004    -2.3445 H       
  33 H33            1.6323    -2.7447    -2.5956 H       
  34 H34            2.2204    -4.2073    -0.7070 H       
  35 H35            2.9211    -3.2360     1.4418 H       
  36 H36            3.0460    -0.7944     1.7109 H       
  37 H37           -0.0462     4.3493    -1.1751 H       
  38 H38           -0.6672     3.5824     0.3063 H       
  39 H39            0.3400     5.0458     0.4168 H       
  40 H40           -0.4096     0.9409     1.7029 H       
  41 H41           -2.9274     0.7854     1.4370 H       
  42 H42           -2.7440     0.9441    -0.3913 H       
  43 H43           -1.3321    -1.1628    -0.4326 H       
  44 H44           -1.5155    -1.3215     1.3957 H       
@<TRIPOS>BOND
   1    1    2 2
   2    1    7 1
   3    1   23 1
   4    3    4 1
   5    3   15 1
   6    4    5 ar
   7    4    9 ar
   8    5    6 ar
   9    6    7 ar
  10    6   22 1
  11    7    8 ar
  12    8    9 ar
  13    8   16 1
  14    9   10 1
  15   10   11 1
  16   10   15 2
  17   11   12 1
  18   11   26 1
  19   11   27 1
  20   12   13 1
  21   12   28 1
  22   12   29 1
  23   13   14 1
  24   14   15 1
  25   14   30 1
  26   14   31 1
  27   16   17 ar
  28   16   21 ar
  29   17   18 ar
  30   17   32 1
  31   18   19 ar
  32   18   33 1
  33   19   20 ar
  34   19   34 1
  35   20   21 ar
  36   20   35 1
  37   21   36 1
  38   22   37 1
  39   22   38 1
  40   22   39 1
  41   23   24 1
  42   23   25 1
  43   23   40 1
  44   24   25 1
  45   24   41 1
  46   24   42 1
  47   25   43 1
  48   25   44 1

#	End of record

