#	Name: ASD01870330
#	Creating user name:	WinNT
#	Creation time:	15. 06. 2019 19:39

#	Modifying user name:	WinNT
#	Modification time:	15. 06. 2019 19:39

#	Program:	/corina/corina34_cracker 3.40 0067  02.08.2006

@<TRIPOS>MOLECULE
ASD01870330
  39   42    0    0    0
SMALL
NO_CHARGES


@<TRIPOS>ATOM
   1 N1            -0.0414     1.3098    -0.0152 N.ar    
   2 C2            -0.0234    -0.0040    -0.0668 C.ar    
   3 C3             0.8968    -0.7328     0.6701 C.ar    
   4 C4             1.8087    -0.0637     1.4710 C.ar    
   5 C5             1.7665     1.3215     1.5060 C.ar    
   6 C6             0.8144     1.9889     0.7391 C.ar    
   7 C7             0.7565     3.4688     0.7650 C.2     
   8 O8             1.5375     4.0955     1.4537 O.2     
   9 N9            -0.1622     4.1203     0.0248 N.am    
  10 C10           -0.2817     5.5113     0.1233 C.ar    
  11 C11            0.8497     6.2937     0.3140 C.ar    
  12 C12           -1.5314     6.1098     0.0246 C.ar    
  13 C13           -1.6488     7.4825     0.1218 C.ar    
  14 C14           -0.5167     8.2643     0.3184 C.ar    
  15 C15            0.7322     7.6661     0.4112 C.ar    
  16 N16           -0.6357     9.6590     0.4173 N.am    
  17 C17           -0.5709    10.5043    -0.6272 C.2     
  18 C18           -0.7390    11.8842    -0.1277 C.ar    
  19 C19           -0.9037    11.7718     1.2686 C.ar    
  20 C20           -0.8353    10.3261     1.5683 C.2     
  21 C21           -1.0882    12.9109     2.0343 C.ar    
  22 C22           -0.7604    13.1350    -0.7257 C.ar    
  23 C23           -0.9441    14.2678     0.0561 C.ar    
  24 C24           -1.1012    14.1563     1.4237 C.ar    
  25 O25           -0.9392     9.8246     2.6696 O.2     
  26 O26           -0.4024    10.1860    -1.7872 O.2     
  27 Cl27          -3.2101     8.2313    -0.0020 Cl      
  28 Cl28          -0.5579    13.2842    -2.4434 Cl      
  29 H29           -0.7356    -0.5223    -0.6917 H       
  30 H30            0.9030    -1.8117     0.6209 H       
  31 H31            2.5354    -0.6090     2.0549 H       
  32 H32            2.4619     1.8752     2.1194 H       
  33 H33           -0.7406     3.6252    -0.5762 H       
  34 H34            1.8217     5.8286     0.3866 H       
  35 H35           -2.4108     5.5020    -0.1286 H       
  36 H36            1.6123     8.2741     0.5595 H       
  37 H37           -1.2218    12.8298     3.1030 H       
  38 H38           -0.9611    15.2428    -0.4080 H       
  39 H39           -1.2455    15.0446     2.0208 H       
@<TRIPOS>BOND
   1    1    2 ar
   2    1    6 ar
   3    2    3 ar
   4    2   29 1
   5    3    4 ar
   6    3   30 1
   7    4    5 ar
   8    4   31 1
   9    5    6 ar
  10    5   32 1
  11    6    7 1
  12    7    8 2
  13    7    9 am
  14    9   10 1
  15    9   33 1
  16   10   12 ar
  17   10   11 ar
  18   11   15 ar
  19   11   34 1
  20   12   13 ar
  21   12   35 1
  22   13   14 ar
  23   13   27 1
  24   14   15 ar
  25   14   16 1
  26   15   36 1
  27   16   17 am
  28   16   20 am
  29   17   18 1
  30   17   26 2
  31   18   22 ar
  32   18   19 ar
  33   19   20 1
  34   19   21 ar
  35   20   25 2
  36   21   24 ar
  37   21   37 1
  38   22   23 ar
  39   22   28 1
  40   23   24 ar
  41   23   38 1
  42   24   39 1

#	End of record

