#	Name: ASD01912996
#	Creating user name:	WinNT
#	Creation time:	15. 06. 2019 20:00

#	Modifying user name:	WinNT
#	Modification time:	15. 06. 2019 20:00

#	Program:	/corina/corina34_cracker 3.40 0067  02.08.2006

@<TRIPOS>MOLECULE
ASD01912996
  41   43    0    0    0
SMALL
NO_CHARGES


@<TRIPOS>ATOM
   1 C1             0.0471     1.4267     0.0232 C.2     
   2 C2             0.0835    -0.0049     0.0174 C.1     
   3 C3             0.1133    -1.1785     0.0127 C.1     
   4 C4             0.1498    -2.6100     0.0069 C.ar    
   5 C5            -1.0405    -3.3431     0.0196 C.ar    
   6 C6             1.3757    -3.2814    -0.0172 C.ar    
   7 C7             1.4027    -4.6602    -0.0231 C.ar    
   8 C8             0.2202    -5.3790    -0.0056 C.ar    
   9 C9            -0.9974    -4.7214     0.0135 C.ar    
  10 N10            1.0867     2.2092     0.0126 N.2     
  11 C11            0.8803     3.5149     0.0213 C.2     
  12 C12           -0.4227     3.8672     0.0347 C.2     
  13 S13           -1.4118     2.4125     0.0380 S.3     
  14 N14            0.2140     6.1763     0.2794 N.am    
  15 C15           -0.9366     5.2897     0.0363 C.3     
  16 S16            0.1037     7.4532     1.3280 S.o2    
  17 O17           -1.0085     7.1342     2.1529 O.2     
  18 O18            1.4103     7.5723     1.8738 O.2     
  19 C19           -0.2761     8.8766     0.2696 C.3     
  20 C20           -1.5329     8.5807    -0.5513 C.3     
  21 C21           -0.5154    10.1110     1.1414 C.3     
  22 C22            2.0094     4.5372     0.0240 C.3     
  23 C23            1.4643     5.8894    -0.4397 C.3     
  24 H24           -1.9914    -2.8313     0.0345 H       
  25 H25            2.2993    -2.7218    -0.0316 H       
  26 H26            2.3490    -5.1803    -0.0418 H       
  27 H27            0.2477    -6.4586    -0.0111 H       
  28 H28           -1.9160    -5.2891     0.0270 H       
  29 H29           -1.3853     5.5222    -0.9295 H       
  30 H30           -1.6748     5.4158     0.8283 H       
  31 H31            0.5613     9.0633    -0.4026 H       
  32 H32           -2.3474     8.3042     0.1181 H       
  33 H33           -1.8139     9.4682    -1.1182 H       
  34 H34           -1.3327     7.7588    -1.2387 H       
  35 H35            0.3799    10.3218     1.7262 H       
  36 H36           -0.7437    10.9662     0.5054 H       
  37 H37           -1.3529     9.9242     1.8136 H       
  38 H38            2.4115     4.6331     1.0326 H       
  39 H39            2.7981     4.2106    -0.6539 H       
  40 H40            1.2687     5.8553    -1.5115 H       
  41 H41            2.1949     6.6696    -0.2261 H       
@<TRIPOS>BOND
   1    1    2 1
   2    1   10 2
   3    1   13 1
   4    2    3 3
   5    3    4 1
   6    4    5 ar
   7    4    6 ar
   8    5    9 ar
   9    5   24 1
  10    6    7 ar
  11    6   25 1
  12    7    8 ar
  13    7   26 1
  14    8    9 ar
  15    8   27 1
  16    9   28 1
  17   10   11 1
  18   11   12 2
  19   11   22 1
  20   12   13 1
  21   12   15 1
  22   14   15 1
  23   14   16 am
  24   14   23 1
  25   15   29 1
  26   15   30 1
  27   16   17 2
  28   16   18 2
  29   16   19 1
  30   19   20 1
  31   19   21 1
  32   19   31 1
  33   20   32 1
  34   20   33 1
  35   20   34 1
  36   21   35 1
  37   21   36 1
  38   21   37 1
  39   22   23 1
  40   22   38 1
  41   22   39 1
  42   23   40 1
  43   23   41 1

#	End of record

