#	Name: ASD01883396
#	Creating user name:	WinNT
#	Creation time:	15. 06. 2019 19:46

#	Modifying user name:	WinNT
#	Modification time:	15. 06. 2019 19:46

#	Program:	/corina/corina34_cracker 3.40 0067  02.08.2006

@<TRIPOS>MOLECULE
ASD01883396
  59   61    0    0    0
SMALL
NO_CHARGES


@<TRIPOS>ATOM
   1 N1            -0.0161     1.3416     0.0134 N.am    
   2 C2            -0.0055     0.0078    -0.1666 C.2     
   3 C3            -1.2225    -0.7140    -0.1653 C.2     
   4 C4            -2.4239    -0.0108     0.0261 C.2     
   5 C5            -2.3698     1.3834     0.2090 C.2     
   6 C6            -1.1780     2.0193     0.2035 C.2     
   7 O7             1.0514    -0.5778    -0.3310 O.2     
   8 C8            -1.2298    -2.1332    -0.3559 C.1     
   9 C9             1.2513     2.0764     0.0103 C.3     
  10 N10           -3.6308    -0.6731     0.0341 N.pl3   
  11 C11            1.5732     2.5169    -1.3945 C.ar    
  12 C12           -3.9343    -1.6769     1.0654 C.3     
  13 C13           -5.2925    -1.3386     1.6892 C.3     
  14 N14           -6.2991    -1.2162     0.6263 N.3     
  15 C15           -5.9809    -0.1079    -0.2838 C.3     
  16 C16           -4.6533    -0.3913    -0.9849 C.3     
  17 C17           -7.6460    -1.0627     1.1920 C.3     
  18 C18            1.1272     3.7429    -1.8525 C.ar    
  19 C19            1.4209     4.1490    -3.1399 C.ar    
  20 C20            2.1639     3.3256    -3.9732 C.ar    
  21 C21            2.6103     2.0960    -3.5112 C.ar    
  22 C22            2.3187     1.6969    -2.2212 C.ar    
  23 C23           -8.6127    -0.6964     0.0955 C.ar    
  24 C24           -9.2710    -1.6895    -0.6049 C.ar    
  25 C25          -10.1595    -1.3541    -1.6127 C.ar    
  26 C26          -10.3881    -0.0236    -1.9185 C.ar    
  27 C27           -9.7282     0.9702    -1.2164 C.ar    
  28 C28           -8.8444     0.6325    -0.2052 C.ar    
  29 F29          -10.8025    -2.3250    -2.2975 F       
  30 F30           -9.9501     2.2691    -1.5142 F       
  31 O31            2.4538     3.7227    -5.2402 O.3     
  32 C32            3.2229     2.8239    -6.0418 C.3     
  33 F33            2.5351     1.6130    -6.1755 F       
  34 F34            3.4279     3.3858    -7.3065 F       
  35 F35            4.4588     2.5929    -5.4283 F       
  36 N36           -1.2355    -3.2591    -0.5071 N.1     
  37 H37           -3.2806     1.9444     0.3576 H       
  38 H38           -1.1489     3.0896     0.3452 H       
  39 H39            1.1657     2.9513     0.6548 H       
  40 H40            2.0472     1.4296     0.3796 H       
  41 H41           -3.9762    -2.6671     0.6115 H       
  42 H42           -3.1626    -1.6561     1.8349 H       
  43 H43           -5.5845    -2.1321     2.3771 H       
  44 H44           -5.2191    -0.3957     2.2310 H       
  45 H45           -6.7722    -0.0088    -1.0268 H       
  46 H46           -5.8980     0.8179     0.2855 H       
  47 H47           -4.3570     0.4773    -1.5728 H       
  48 H48           -4.7612    -1.2585    -1.6365 H       
  49 H49           -7.9563    -2.0013     1.6514 H       
  50 H50           -7.6361    -0.2753     1.9456 H       
  51 H51            0.5484     4.3834    -1.2035 H       
  52 H52            1.0720     5.1066    -3.4973 H       
  53 H53            3.1889     1.4532    -4.1580 H       
  54 H54            2.6659     0.7398    -1.8610 H       
  55 H55           -9.0922    -2.7275    -0.3663 H       
  56 H56          -11.0806     0.2390    -2.7046 H       
  57 H57           -8.3294     1.4077     0.3427 H       
  58 Cl58           9.4588    10.1066     7.3771 Cl      
  59 H59            9.4588    11.4766     7.3771 H       
@<TRIPOS>BOND
   1    1    2 am
   2    1    9 1
   3    1    6 1
   4    2    3 1
   5    2    7 2
   6    3    4 2
   7    3    8 1
   8    4    5 1
   9    4   10 1
  10    5    6 2
  11    5   37 1
  12    6   38 1
  13    8   36 3
  14    9   11 1
  15    9   39 1
  16    9   40 1
  17   10   12 1
  18   10   16 1
  19   11   18 ar
  20   11   22 ar
  21   12   13 1
  22   12   41 1
  23   12   42 1
  24   13   14 1
  25   13   43 1
  26   13   44 1
  27   14   15 1
  28   14   17 1
  29   15   16 1
  30   15   45 1
  31   15   46 1
  32   16   47 1
  33   16   48 1
  34   17   23 1
  35   17   49 1
  36   17   50 1
  37   18   19 ar
  38   18   51 1
  39   19   20 ar
  40   19   52 1
  41   20   21 ar
  42   20   31 1
  43   21   22 ar
  44   21   53 1
  45   22   54 1
  46   23   24 ar
  47   23   28 ar
  48   24   25 ar
  49   24   55 1
  50   25   26 ar
  51   25   29 1
  52   26   27 ar
  53   26   56 1
  54   27   28 ar
  55   27   30 1
  56   28   57 1
  57   31   32 1
  58   32   33 1
  59   32   34 1
  60   32   35 1
  61   58   59 1

#	End of record

