#	Name: ASD01814845
#	Creating user name:	WinNT
#	Creation time:	15. 06. 2019 19:33

#	Modifying user name:	WinNT
#	Modification time:	15. 06. 2019 19:33

#	Program:	/corina/corina34_cracker 3.40 0067  02.08.2006

@<TRIPOS>MOLECULE
ASD01814845
  48   51    0    0    0
SMALL
NO_CHARGES


@<TRIPOS>ATOM
   1 C1             0.1056     1.5449    -0.0309 C.2     
   2 C2             0.0813     0.1438    -0.0424 C.2     
   3 C3             1.2570    -0.5482    -0.0464 C.2     
   4 C4             2.4726     0.1559    -0.0389 C.2     
   5 N5             2.4668     1.5243    -0.0274 N.am    
   6 C6             1.2856     2.2051    -0.0238 C.2     
   7 C7             3.6822    -0.5529    -0.0430 C.2     
   8 C8             4.8687     0.1214    -0.0354 C.2     
   9 C9             4.8590     1.5285    -0.0240 C.2     
  10 C10            3.6262     2.2126    -0.0199 C.2     
  11 O11            3.6084     3.4319    -0.0105 O.2     
  12 C12            6.1185     2.2759    -0.0153 C.2     
  13 O13            6.1024     3.6247    -0.0044 O.3     
  14 O14            7.1791     1.6803    -0.0178 O.2     
  15 C15            3.6723    -2.0598    -0.0552 C.3     
  16 N16            3.7917    -2.5391    -1.4386 N.3     
  17 C17            4.0235    -3.9898    -1.4752 C.3     
  18 C18            4.0625    -4.4609    -2.9309 C.3     
  19 N19            5.1256    -3.7424    -3.6473 N.3     
  20 C20            4.8938    -2.2917    -3.6107 C.3     
  21 C21            4.8548    -1.8205    -2.1550 C.3     
  22 H22            4.9741    -4.2184    -0.9934 H       
  23 C23            5.2392    -4.1983    -4.9634 C.ar    
  24 C24            4.9133    -3.3598    -6.0209 C.ar    
  25 C25            5.6844    -5.4908    -5.2171 C.ar    
  26 C26            5.7958    -5.9377    -6.5197 C.ar    
  27 C27            5.4650    -5.1008    -7.5701 C.ar    
  28 C28            5.0271    -3.8134    -7.3209 C.ar    
  29 H29            4.2632    -5.5318    -2.9613 H       
  30 H30            3.1025    -4.2569    -3.4050 H       
  31 Cl31           6.1002    -6.5413    -3.8990 Cl      
  32 H32           -0.8213     2.0993    -0.0322 H       
  33 H33           -0.8609    -0.3841    -0.0476 H       
  34 H34            1.2532    -1.6281    -0.0549 H       
  35 H35            1.2925     3.2851    -0.0147 H       
  36 H36            5.8040    -0.4186    -0.0377 H       
  37 H37            6.9586     4.0740     0.0011 H       
  38 H38            4.5108    -2.4334     0.5325 H       
  39 H39            2.7379    -2.4204     0.3749 H       
  40 H40            3.2168    -4.5003    -0.9493 H       
  41 H41            5.7005    -1.7811    -4.1366 H       
  42 H42            3.9432    -2.0630    -4.0925 H       
  43 H43            4.6541    -0.7496    -2.1246 H       
  44 H44            5.8148    -2.0245    -1.6809 H       
  45 H45            4.5707    -2.3540    -5.8274 H       
  46 H46            6.1418    -6.9414    -6.7179 H       
  47 H47            5.5533    -5.4524    -8.5874 H       
  48 H48            4.7697    -3.1627    -8.1436 H       
@<TRIPOS>BOND
   1    1    2 1
   2    1    6 2
   3    1   32 1
   4    2    3 2
   5    2   33 1
   6    3    4 1
   7    3   34 1
   8    4    5 1
   9    4    7 2
  10    5    6 1
  11    5   10 am
  12    6   35 1
  13    7   15 1
  14    7    8 1
  15    8    9 2
  16    8   36 1
  17    9   10 1
  18    9   12 1
  19   10   11 2
  20   12   13 1
  21   12   14 2
  22   13   37 1
  23   15   16 1
  24   15   38 1
  25   15   39 1
  26   16   17 1
  27   16   21 1
  28   17   18 1
  29   17   22 1
  30   17   40 1
  31   18   19 1
  32   18   29 1
  33   18   30 1
  34   19   20 1
  35   19   23 1
  36   20   21 1
  37   20   41 1
  38   20   42 1
  39   21   43 1
  40   21   44 1
  41   23   24 ar
  42   23   25 ar
  43   24   28 ar
  44   24   45 1
  45   25   26 ar
  46   25   31 1
  47   26   27 ar
  48   26   46 1
  49   27   28 ar
  50   27   47 1
  51   28   48 1

#	End of record

