#	Name: ASD02500330
#	Creating user name:	WinNT
#	Creation time:	15. 06. 2019 20:22

#	Modifying user name:	WinNT
#	Modification time:	15. 06. 2019 20:22

#	Program:	/corina/corina34_cracker 3.40 0067  02.08.2006

@<TRIPOS>MOLECULE
ASD02500330
  54   57    0    0    0
SMALL
NO_CHARGES


@<TRIPOS>ATOM
   1 C1            -1.1555     0.1721     2.5121 C.2     
   2 C2            -0.6209     0.1295     3.7334 C.2     
   3 C3             0.3885    -0.8036     3.8960 C.2     
   4 C4             0.6737    -1.5187     2.8067 C.2     
   5 S5            -0.3681    -1.0161     1.4818 S.3     
   6 S6            -2.4568     1.2488     2.0099 S.o2    
   7 O7            -3.0064     0.6887     0.8252 O.2     
   8 O8            -3.2277     1.5164     3.1733 O.2     
   9 N9            -1.7615     2.6856     1.5690 N.am    
  10 C10           -1.0911     3.4529     2.5151 C.ar    
  11 C11            0.1588     3.9882     2.2163 C.ar    
  12 C12            0.8248     4.7480     3.1506 C.ar    
  13 C13            0.2450     4.9820     4.4009 C.ar    
  14 C14           -1.0103     4.4431     4.6979 C.ar    
  15 C15           -1.6737     3.6889     3.7573 C.ar    
  16 C16            0.9564     5.7957     5.4049 C.2     
  17 O17            0.3424     6.5937     6.0866 O.2     
  18 N18            2.2870     5.6545     5.5666 N.am    
  19 C19            3.0005     6.3848     6.6253 C.3     
  20 C20            3.8421     5.3842     7.4245 C.3     
  21 N21            4.7015     4.6272     6.5046 N.3     
  22 C22            3.9031     3.8293     5.5644 C.3     
  23 C23            3.0631     4.7615     4.6928 C.3     
  24 C24            5.6017     3.8196     7.2092 C.ar    
  25 C25            6.5994     4.4014     7.9890 C.ar    
  26 C26            7.4870     3.5976     8.6843 C.ar    
  27 C27            7.3827     2.2206     8.6037 C.ar    
  28 C28            6.3937     1.6428     7.8301 C.ar    
  29 C29            5.4996     2.4384     7.1377 C.ar    
  30 O30            6.7014     5.7554     8.0666 O.3     
  31 C31            7.7482     6.2813     8.8850 C.3     
  32 H32           -0.9504     0.7744     4.5346 H       
  33 H33            0.9063    -0.9419     4.8337 H       
  34 H34            1.4291    -2.2883     2.7473 H       
  35 H35           -1.8219     2.9920     0.6506 H       
  36 H36            0.6064     3.8067     1.2503 H       
  37 H37            1.7946     5.1627     2.9182 H       
  38 H38           -1.4606     4.6219     5.6631 H       
  39 H39           -2.6456     3.2763     3.9845 H       
  40 H40            3.6516     7.1354     6.1774 H       
  41 H41            2.2805     6.8677     7.2860 H       
  42 H42            4.4619     5.9217     8.1421 H       
  43 H43            3.1832     4.6970     7.9553 H       
  44 H44            4.5673     3.2391     4.9330 H       
  45 H45            3.2434     3.1637     6.1211 H       
  46 H46            2.3845     4.1717     4.0765 H       
  47 H47            3.7203     5.3531     4.0556 H       
  48 H48            8.2611     4.0458     9.2894 H       
  49 H49            8.0761     1.5953     9.1464 H       
  50 H50            6.3166     0.5673     7.7696 H       
  51 H51            4.7250     1.9843     6.5375 H       
  52 H52            8.7114     5.9361     8.5092 H       
  53 H53            7.7173     7.3706     8.8590 H       
  54 H54            7.6145     5.9384     9.9109 H       
@<TRIPOS>BOND
   1    1    2 2
   2    1    5 1
   3    1    6 1
   4    2    3 1
   5    2   32 1
   6    3    4 2
   7    3   33 1
   8    4    5 1
   9    4   34 1
  10    6    7 2
  11    6    8 2
  12    6    9 am
  13    9   10 1
  14    9   35 1
  15   10   11 ar
  16   10   15 ar
  17   11   12 ar
  18   11   36 1
  19   12   13 ar
  20   12   37 1
  21   13   14 ar
  22   13   16 1
  23   14   15 ar
  24   14   38 1
  25   15   39 1
  26   16   17 2
  27   16   18 am
  28   18   19 1
  29   18   23 1
  30   19   20 1
  31   19   40 1
  32   19   41 1
  33   20   21 1
  34   20   42 1
  35   20   43 1
  36   21   22 1
  37   21   24 1
  38   22   23 1
  39   22   44 1
  40   22   45 1
  41   23   46 1
  42   23   47 1
  43   24   25 ar
  44   24   29 ar
  45   25   26 ar
  46   25   30 1
  47   26   27 ar
  48   26   48 1
  49   27   28 ar
  50   27   49 1
  51   28   29 ar
  52   28   50 1
  53   29   51 1
  54   30   31 1
  55   31   52 1
  56   31   53 1
  57   31   54 1

#	End of record

