#	Name: ASD00040001
#	Creating user name:	WinNT
#	Creation time:	15. 06. 2019 18:28

#	Modifying user name:	WinNT
#	Modification time:	15. 06. 2019 18:28

#	Program:	/corina/corina34_cracker 3.40 0067  02.08.2006

@<TRIPOS>MOLECULE
ASD00040001
 142  141    0    0    0
SMALL
NO_CHARGES


@<TRIPOS>ATOM
   1 P1             0.7237     1.6693    -0.9363 P.3     
   2 O2             0.8652     0.0674    -1.0141 O.3     
   3 O3             2.0829     2.3232    -1.2712 O.co2   
   4 O4            -0.3844     2.1621    -1.9953 O.3     
   5 O5             0.2921     2.0796     0.4893 O.co2   
   6 C6            -0.8150     3.5210    -2.0955 C.3     
   7 C7            -1.8701     3.6417    -3.1968 C.3     
   8 N8            -3.0873     2.9273    -2.7893 N.4     
   9 C9            -3.5444     3.4400    -1.4907 C.3     
  10 C10           -4.1374     3.1356    -3.7951 C.3     
  11 C11           -2.7972     1.4918    -2.6743 C.3     
  12 C12            1.6940    -0.6847    -0.1255 C.3     
  13 C13            0.8343    -1.6854     0.6495 C.3     
  14 C14            2.7531    -1.4392    -0.9317 C.3     
  15 O15           -0.0928    -0.9664     1.5049 O.3     
  16 C16           -0.9247    -1.7037     2.2574 C.2     
  17 C17           -1.9148    -1.0271     3.1700 C.3     
  18 O18           -0.8796    -2.9099     2.2029 O.2     
  19 O19            3.6423    -0.4871    -1.5729 O.3     
  20 C20            4.6347    -0.9903    -2.3237 C.2     
  21 C21            5.5972    -0.0631    -3.0201 C.3     
  22 O22            4.7563    -2.1867    -2.4412 O.2     
  23 C23            6.6224    -0.8862    -3.8026 C.3     
  24 C24            7.5996     0.0552    -4.5097 C.3     
  25 C25           -2.7350    -2.0869     3.9081 C.3     
  26 C26           -3.7402    -1.4000     4.8347 C.3     
  27 C27           -4.5604    -2.4598     5.5729 C.3     
  28 C28           -5.5656    -1.7729     6.4994 C.3     
  29 C29           -6.3858    -2.8327     7.2376 C.3     
  30 C30           -7.3910    -2.1457     8.1641 C.3     
  31 C31           -8.2112    -3.2056     8.9023 C.3     
  32 C32           -9.2164    -2.5186     9.8288 C.3     
  33 C33          -10.0366    -3.5785    10.5670 C.3     
  34 C34          -11.0418    -2.8915    11.4936 C.3     
  35 C35          -11.8619    -3.9514    12.2317 C.3     
  36 C36          -12.8672    -3.2644    13.1583 C.3     
  37 C37          -13.6873    -4.3243    13.8964 C.3     
  38 C38          -14.6926    -3.6373    14.8230 C.3     
  39 C39          -15.5127    -4.6972    15.5612 C.3     
  40 C40          -16.5180    -4.0102    16.4877 C.3     
  41 C41            8.6249    -0.7679    -5.2922 C.3     
  42 C42            9.6020     0.1735    -5.9992 C.3     
  43 C43           10.6273    -0.6496    -6.7817 C.3     
  44 C44           11.6045     0.2918    -7.4887 C.3     
  45 C45           12.6297    -0.5313    -8.2712 C.3     
  46 C46           13.6069     0.4101    -8.9782 C.3     
  47 C47           14.6321    -0.4130    -9.7608 C.3     
  48 C48           15.6093     0.5284   -10.4678 C.3     
  49 C49           16.6346    -0.2947   -11.2503 C.3     
  50 C50           17.6117     0.6467   -11.9573 C.3     
  51 C51           18.6370    -0.1764   -12.7398 C.3     
  52 C52           19.6142     0.7650   -13.4468 C.3     
  53 C53           20.6394    -0.0581   -14.2293 C.3     
  54 C54           21.6166     0.8833   -14.9364 C.3     
  55 H55           -1.2442     3.8372    -1.1448 H       
  56 H56            0.0376     4.1554    -2.3381 H       
  57 H57           -2.1043     4.6934    -3.3620 H       
  58 H58           -1.4847     3.2062    -4.1187 H       
  59 H59           -3.7596     4.5051    -1.5760 H       
  60 H60           -4.4475     2.9099    -1.1883 H       
  61 H61           -2.7652     3.2854    -0.7444 H       
  62 H62           -3.7982     2.7552    -4.7586 H       
  63 H63           -5.0405     2.6055    -3.4927 H       
  64 H64           -4.3527     4.2007    -3.8804 H       
  65 H65           -2.1489     1.3198    -1.8151 H       
  66 H66           -3.7292     0.9422    -2.5421 H       
  67 H67           -2.2982     1.1483    -3.5804 H       
  68 H68            2.1840    -0.0080     0.5746 H       
  69 H69            0.2756    -2.3045    -0.0524 H       
  70 H70            1.4766    -2.3189     1.2612 H       
  71 H71            3.3283    -2.0813    -0.2647 H       
  72 H72            2.2649    -2.0492    -1.6917 H       
  73 H73           -1.3802    -0.4120     3.8939 H       
  74 H74           -2.5812    -0.3976     2.5802 H       
  75 H75            5.0484     0.5814    -3.7068 H       
  76 H76            6.1118     0.5493    -2.2797 H       
  77 H77            7.1713    -1.5307    -3.1160 H       
  78 H78            6.1079    -1.4987    -4.5430 H       
  79 H79            7.0508     0.6997    -5.1963 H       
  80 H80            8.1142     0.6676    -3.7693 H       
  81 H81           -3.2695    -2.7020     3.1842 H       
  82 H82           -2.0686    -2.7164     4.4979 H       
  83 H83           -3.2056    -0.7849     5.5586 H       
  84 H84           -4.4066    -0.7705     4.2450 H       
  85 H85           -5.0949    -3.0749     4.8489 H       
  86 H86           -3.8940    -3.0893     6.1626 H       
  87 H87           -5.0310    -1.1578     7.2233 H       
  88 H88           -6.2320    -1.1434     5.9097 H       
  89 H89           -6.9203    -3.4478     6.5137 H       
  90 H90           -5.7194    -3.4622     7.8273 H       
  91 H91           -6.8564    -1.5307     8.8880 H       
  92 H92           -8.0574    -1.5163     7.5744 H       
  93 H93           -8.7457    -3.8206     8.1784 H       
  94 H94           -7.5447    -3.8351     9.4920 H       
  95 H95           -8.6818    -1.9036    10.5528 H       
  96 H96           -9.8828    -1.8892     9.2391 H       
  97 H97          -10.5711    -4.1935     9.8431 H       
  98 H98           -9.3701    -4.2080    11.1568 H       
  99 H99          -10.5072    -2.2765    12.2175 H       
 100 H100         -11.7082    -2.2621    10.9038 H       
 101 H101         -12.3965    -4.5664    11.5078 H       
 102 H102         -11.1955    -4.5808    12.8215 H       
 103 H103         -12.3326    -2.6494    13.8822 H       
 104 H104         -13.5336    -2.6350    12.5685 H       
 105 H105         -14.2219    -4.9393    13.1725 H       
 106 H106         -13.0209    -4.9537    14.4862 H       
 107 H107         -14.1580    -3.0223    15.5469 H       
 108 H108         -15.3590    -3.0079    14.2333 H       
 109 H109         -16.0473    -5.3122    14.8372 H       
 110 H110         -14.8463    -5.3266    16.1509 H       
 111 H111         -17.1023    -4.7653    17.0136 H       
 112 H112         -15.9834    -3.3952    17.2116 H       
 113 H113         -17.1844    -3.3807    15.8980 H       
 114 H114           9.1737    -1.4124    -4.6055 H       
 115 H115           8.1103    -1.3804    -6.0326 H       
 116 H116           9.0532     0.8180    -6.6858 H       
 117 H117          10.1166     0.7859    -5.2588 H       
 118 H118          11.1761    -1.2941    -6.0951 H       
 119 H119          10.1127    -1.2621    -7.5221 H       
 120 H120          11.0556     0.9363    -8.1753 H       
 121 H121          12.1190     0.9042    -6.7483 H       
 122 H122          13.1786    -1.1758    -7.5846 H       
 123 H123          12.1151    -1.1438    -9.0116 H       
 124 H124          13.0581     1.0546    -9.6649 H       
 125 H125          14.1215     1.0225    -8.2378 H       
 126 H126          15.1810    -1.0575    -9.0741 H       
 127 H127          14.1176    -1.0255   -10.5012 H       
 128 H128          15.0605     1.1729   -11.1544 H       
 129 H129          16.1239     1.1408    -9.7274 H       
 130 H130          17.1834    -0.9392   -10.5637 H       
 131 H131          16.1200    -0.9072   -11.9907 H       
 132 H132          17.0629     1.2912   -12.6439 H       
 133 H133          18.1263     1.2591   -11.2169 H       
 134 H134          19.1858    -0.8209   -12.0532 H       
 135 H135          18.1224    -0.7889   -13.4802 H       
 136 H136          19.0653     1.4095   -14.1334 H       
 137 H137          20.1287     1.3774   -12.7064 H       
 138 H138          21.1883    -0.7026   -13.5427 H       
 139 H139          20.1249    -0.6706   -14.9697 H       
 140 H140          21.0678     1.5278   -15.6230 H       
 141 H141          22.1312     1.4957   -14.1959 H       
 142 H142          22.3470     0.2969   -15.4938 H       
@<TRIPOS>BOND
   1    1    2 1
   2    1    3 ar
   3    1    4 1
   4    1    5 ar
   5    2   12 1
   6    4    6 1
   7    6    7 1
   8    6   55 1
   9    6   56 1
  10    7    8 1
  11    7   57 1
  12    7   58 1
  13    8    9 1
  14    8   10 1
  15    8   11 1
  16    9   59 1
  17    9   60 1
  18    9   61 1
  19   10   62 1
  20   10   63 1
  21   10   64 1
  22   11   65 1
  23   11   66 1
  24   11   67 1
  25   12   13 1
  26   12   14 1
  27   12   68 1
  28   13   15 1
  29   13   69 1
  30   13   70 1
  31   14   19 1
  32   14   71 1
  33   14   72 1
  34   15   16 1
  35   16   17 1
  36   16   18 2
  37   17   25 1
  38   17   73 1
  39   17   74 1
  40   19   20 1
  41   20   21 1
  42   20   22 2
  43   21   23 1
  44   21   75 1
  45   21   76 1
  46   23   24 1
  47   23   77 1
  48   23   78 1
  49   24   41 1
  50   24   79 1
  51   24   80 1
  52   25   26 1
  53   25   81 1
  54   25   82 1
  55   26   27 1
  56   26   83 1
  57   26   84 1
  58   27   28 1
  59   27   85 1
  60   27   86 1
  61   28   29 1
  62   28   87 1
  63   28   88 1
  64   29   30 1
  65   29   89 1
  66   29   90 1
  67   30   31 1
  68   30   91 1
  69   30   92 1
  70   31   32 1
  71   31   93 1
  72   31   94 1
  73   32   33 1
  74   32   95 1
  75   32   96 1
  76   33   34 1
  77   33   97 1
  78   33   98 1
  79   34   35 1
  80   34   99 1
  81   34  100 1
  82   35   36 1
  83   35  101 1
  84   35  102 1
  85   36   37 1
  86   36  103 1
  87   36  104 1
  88   37   38 1
  89   37  105 1
  90   37  106 1
  91   38   39 1
  92   38  107 1
  93   38  108 1
  94   39   40 1
  95   39  109 1
  96   39  110 1
  97   40  111 1
  98   40  112 1
  99   40  113 1
 100   41   42 1
 101   41  114 1
 102   41  115 1
 103   42   43 1
 104   42  116 1
 105   42  117 1
 106   43   44 1
 107   43  118 1
 108   43  119 1
 109   44   45 1
 110   44  120 1
 111   44  121 1
 112   45   46 1
 113   45  122 1
 114   45  123 1
 115   46   47 1
 116   46  124 1
 117   46  125 1
 118   47   48 1
 119   47  126 1
 120   47  127 1
 121   48   49 1
 122   48  128 1
 123   48  129 1
 124   49   50 1
 125   49  130 1
 126   49  131 1
 127   50   51 1
 128   50  132 1
 129   50  133 1
 130   51   52 1
 131   51  134 1
 132   51  135 1
 133   52   53 1
 134   52  136 1
 135   52  137 1
 136   53   54 1
 137   53  138 1
 138   53  139 1
 139   54  140 1
 140   54  141 1
 141   54  142 1

#	End of record

