#	Name: ASD09740099
#	Creating user name:	WinNT
#	Creation time:	15. 06. 2019 21:22

#	Modifying user name:	WinNT
#	Modification time:	15. 06. 2019 21:22

#	Program:	/corina/corina34_cracker 3.40 0067  02.08.2006

@<TRIPOS>MOLECULE
ASD09740099
  43   45    0    0    0
SMALL
NO_CHARGES


@<TRIPOS>ATOM
   1 O1            -0.0144     1.2085     0.0087 O.3     
   2 N2             0.0021    -0.0041     0.0020 N.2     
   3 C3             1.2414     1.6827    -0.0008 C.2     
   4 N4             2.0457     0.6355    -0.0141 N.2     
   5 C5             1.2344    -0.4424    -0.0121 C.2     
   6 C6             1.6618    -1.8647    -0.0234 C.ar    
   7 C7             1.6459     3.1031     0.0023 C.ar    
   8 C8             0.7200    -2.8958    -0.0200 C.ar    
   9 C9             3.0159    -2.2058    -0.0436 C.ar    
  10 C10            3.3761    -3.5422    -0.0541 C.ar    
  11 N11            2.4643    -4.4901    -0.0458 N.ar    
  12 C12            1.1656    -4.2145    -0.0314 C.ar    
  13 C13            2.9998     3.4452    -0.0092 C.ar    
  14 C14            3.3758     4.7714    -0.0063 C.ar    
  15 C15            2.4113     5.7692     0.0085 C.ar    
  16 C16            1.0586     5.4348     0.0205 C.ar    
  17 C17            0.6750     4.1071     0.0109 C.ar    
  18 C18            0.1815    -5.3208    -0.0221 C.2     
  19 O19            0.6054    -6.5991    -0.0282 O.3     
  20 O20           -1.0077    -5.0756    -0.0089 O.2     
  21 O21            0.1159     6.4149     0.0359 O.3     
  22 C22           -2.1584     7.2319     0.0641 C.3     
  23 C23           -1.2514     5.9998     0.0476 C.3     
  24 O24            2.7869     7.0750     0.0117 O.3     
  25 C25            4.4164     8.8597     0.0052 C.3     
  26 C26            4.1898     7.3466    -0.0007 C.3     
  27 H27           -0.3368    -2.6737    -0.0083 H       
  28 H28            3.7732    -1.4358    -0.0512 H       
  29 H29            4.4220    -3.8108    -0.0697 H       
  30 H30            3.7523     2.6706    -0.0200 H       
  31 H31            4.4232     5.0346    -0.0153 H       
  32 H32           -0.3730     3.8465     0.0198 H       
  33 H33           -0.0742    -7.2870    -0.0217 H       
  34 H34           -3.2013     6.9153     0.0730 H       
  35 H35           -1.9508     7.8239     0.9554 H       
  36 H36           -1.9691     7.8343    -0.8244 H       
  37 H37           -1.4590     5.4077    -0.8438 H       
  38 H38           -1.4407     5.3974     0.9361 H       
  39 H39            5.4865     9.0669    -0.0043 H       
  40 H40            3.9533     9.2998    -0.8780 H       
  41 H41            3.9708     9.2903     0.9019 H       
  42 H42            4.6529     6.9064     0.8825 H       
  43 H43            4.6353     6.9159    -0.8974 H       
@<TRIPOS>BOND
   1    1    2 1
   2    1    3 1
   3    2    5 2
   4    3    4 2
   5    3    7 1
   6    4    5 1
   7    5    6 1
   8    6    8 ar
   9    6    9 ar
  10    7   13 ar
  11    7   17 ar
  12    8   12 ar
  13    8   27 1
  14    9   10 ar
  15    9   28 1
  16   10   11 ar
  17   10   29 1
  18   11   12 ar
  19   12   18 1
  20   13   14 ar
  21   13   30 1
  22   14   15 ar
  23   14   31 1
  24   15   16 ar
  25   15   24 1
  26   16   17 ar
  27   16   21 1
  28   17   32 1
  29   18   19 1
  30   18   20 2
  31   19   33 1
  32   21   23 1
  33   22   23 1
  34   22   34 1
  35   22   35 1
  36   22   36 1
  37   23   37 1
  38   23   38 1
  39   24   26 1
  40   25   26 1
  41   25   39 1
  42   25   40 1
  43   25   41 1
  44   26   42 1
  45   26   43 1

#	End of record

