#	Name: ASD00431371
#	Creating user name:	WinNT
#	Creation time:	15. 06. 2019 18:35

#	Modifying user name:	WinNT
#	Modification time:	15. 06. 2019 18:35

#	Program:	/corina/corina34_cracker 3.40 0067  02.08.2006

@<TRIPOS>MOLECULE
ASD00431371
  55   57    0    0    0
SMALL
NO_CHARGES


@<TRIPOS>ATOM
   1 C1            -0.1109     1.1938    -0.5957 C.2     
   2 N2             0.0000    -0.0078     0.0047 N.am    
   3 O3             0.8451     1.6766    -1.1698 O.2     
   4 O4            -1.2825     1.8566    -0.5641 O.3     
   5 C5             1.1926    -0.7370    -0.1015 C.ar    
   6 C6             1.1736    -2.1216     0.0164 C.ar    
   7 C7             2.3494    -2.8393    -0.0884 C.ar    
   8 C8             3.5486    -2.1776    -0.3112 C.ar    
   9 C9             3.5676    -0.7955    -0.4285 C.ar    
  10 C10            2.3919    -0.0771    -0.3301 C.ar    
  11 Cl11          -0.3268    -2.9489     0.2958 Cl      
  12 O12            4.7056    -2.8841    -0.4143 O.3     
  13 S13            6.1665    -4.7840    -1.7019 S.3     
  14 C14            4.8455    -3.7248    -1.4667 C.2     
  15 N15            3.9958    -3.8417    -2.4404 N.2     
  16 C16            4.2842    -4.7079    -3.3867 C.2     
  17 C17            5.4490    -5.3642    -3.2027 C.2     
  18 O18            6.2106    -7.6705    -5.7317 O.3     
  19 N19            5.5035    -6.8323    -5.2225 N.2     
  20 C20            6.0212    -6.3875    -4.1009 C.2     
  21 C21            7.2477    -7.0921    -3.9263 C.2     
  22 C22            7.3144    -7.9018    -5.0059 C.2     
  23 C23            8.4164    -8.8767    -5.3316 C.3     
  24 C24            7.9827   -10.2886    -4.9324 C.3     
  25 N25            8.6925    -8.8390    -6.7699 N.am    
  26 C26            9.9047    -9.2029    -7.2332 C.2     
  27 O27           10.7670    -9.5615    -6.4594 O.2     
  28 C28           10.1886    -9.1640    -8.7127 C.3     
  29 C29           -1.3291     3.1452    -1.2316 C.3     
  30 C30           -0.9994     2.9636    -2.7146 C.3     
  31 C31           -2.7306     3.7425    -1.0902 C.3     
  32 C32           -0.3064     4.0874    -0.5934 C.3     
  33 H33           -0.7453    -0.3680     0.5103 H       
  34 H34            2.3354    -3.9153     0.0035 H       
  35 H35            4.5014    -0.2812    -0.6012 H       
  36 H36            2.4065     0.9985    -0.4266 H       
  37 H37            3.6431    -4.8799    -4.2387 H       
  38 H38            7.9589    -7.0000    -3.1188 H       
  39 H39            9.3170    -8.6041    -4.7815 H       
  40 H40            7.0821   -10.5613    -5.4825 H       
  41 H41            8.7798   -10.9938    -5.1680 H       
  42 H42            7.7773   -10.3167    -3.8623 H       
  43 H43            8.0028    -8.5522    -7.3887 H       
  44 H44            9.3016    -8.8191    -9.2440 H       
  45 H45           11.0163    -8.4816    -8.9060 H       
  46 H46           10.4534   -10.1634    -9.0581 H       
  47 H47           -1.7280     2.2924    -3.1692 H       
  48 H48           -1.0343     3.9310    -3.2157 H       
  49 H49           -0.0009     2.5381    -2.8153 H       
  50 H50           -2.9655     3.8719    -0.0337 H       
  51 H51           -2.7655     4.7099    -1.5913 H       
  52 H52           -3.4592     3.0713    -1.5448 H       
  53 H53            0.6921     3.6619    -0.6942 H       
  54 H54           -0.3413     5.0548    -1.0945 H       
  55 H55           -0.5413     4.2168     0.4631 H       
@<TRIPOS>BOND
   1    1    2 am
   2    1    3 2
   3    1    4 1
   4    2    5 1
   5    2   33 1
   6    4   29 1
   7    5    6 ar
   8    5   10 ar
   9    6    7 ar
  10    6   11 1
  11    7    8 ar
  12    7   34 1
  13    8    9 ar
  14    8   12 1
  15    9   10 ar
  16    9   35 1
  17   10   36 1
  18   12   14 1
  19   13   14 1
  20   13   17 1
  21   14   15 2
  22   15   16 1
  23   16   17 2
  24   16   37 1
  25   17   20 1
  26   18   19 1
  27   18   22 1
  28   19   20 2
  29   20   21 1
  30   21   22 2
  31   21   38 1
  32   22   23 1
  33   23   24 1
  34   23   25 1
  35   23   39 1
  36   24   40 1
  37   24   41 1
  38   24   42 1
  39   25   26 am
  40   25   43 1
  41   26   27 2
  42   26   28 1
  43   28   44 1
  44   28   45 1
  45   28   46 1
  46   29   30 1
  47   29   32 1
  48   29   31 1
  49   30   47 1
  50   30   48 1
  51   30   49 1
  52   31   50 1
  53   31   51 1
  54   31   52 1
  55   32   53 1
  56   32   54 1
  57   32   55 1

#	End of record

