#	Name: ASD07300961
#	Creating user name:	WinNT
#	Creation time:	15. 06. 2019 21:10

#	Modifying user name:	WinNT
#	Modification time:	15. 06. 2019 21:10

#	Program:	/corina/corina34_cracker 3.40 0067  02.08.2006

@<TRIPOS>MOLECULE
ASD07300961
  46   50    0    0    0
SMALL
NO_CHARGES


@<TRIPOS>ATOM
   1 N1            -0.3627     1.5814     0.6072 N.am    
   2 C2            -0.1932     0.2352     0.6210 C.2     
   3 N3             0.9626    -0.3361     0.4485 N.2     
   4 C4             2.0816     0.3760     0.2420 C.2     
   5 C5             2.0051     1.7773     0.2107 C.2     
   6 C6             0.6963     2.4006     0.4071 C.2     
   7 N7             3.3853     0.0541     0.0374 N.pl3   
   8 N8             4.1122     1.2409    -0.1195 N.2     
   9 C9             3.3063     2.2618    -0.0188 C.2     
  10 O10            0.5642     3.6116     0.3906 O.2     
  11 C11            3.9367    -1.3023    -0.0105 C.3     
  12 C12            4.6968    -1.4978    -1.3239 C.3     
  13 C13            5.2726    -2.9144    -1.3739 C.3     
  14 C14            6.2282    -3.1183    -0.1965 C.3     
  15 C15            5.4681    -2.9229     1.1169 C.3     
  16 C16            4.8922    -1.5063     1.1669 C.3     
  17 C17           -1.4000    -0.6386     0.8471 C.3     
  18 C18           -1.0624    -2.0096     1.4565 C.3     
  19 C19           -0.8956    -2.5211     0.0159 C.3     
  20 C20           -1.8552    -1.3977    -0.4105 C.3     
  21 F21            6.7547    -4.4137    -0.2422 F       
  22 F22            7.2703    -2.1883    -0.2751 F       
  23 C23           -1.4603    -0.7230    -1.6989 C.2     
  24 C24           -0.2646    -0.8967    -2.2683 C.2     
  25 S25           -0.2209     0.0649    -3.7440 S.3     
  26 C26           -1.8158     0.6060    -3.4493 C.2     
  27 N27           -2.2688     0.0827    -2.3591 N.2     
  28 Cl28          -2.7006     1.6950    -4.4715 Cl      
  29 H29           -1.2470     1.9582     0.7372 H       
  30 H30            3.5893     3.3011    -0.0979 H       
  31 H31            3.1248    -2.0270     0.0507 H       
  32 H32            4.0160    -1.3525    -2.1627 H       
  33 H33            5.5087    -0.7731    -1.3851 H       
  34 H34            4.4607    -3.6391    -1.3127 H       
  35 H35            5.8141    -3.0537    -2.3096 H       
  36 H36            4.6562    -3.6475     1.1782 H       
  37 H37            6.1488    -3.0682     1.9557 H       
  38 H38            5.7041    -0.7816     1.1057 H       
  39 H39            4.3507    -1.3670     2.1026 H       
  40 H40           -2.2083    -0.1191     1.3617 H       
  41 H41           -0.1366    -2.0156     2.0319 H       
  42 H42           -1.8958    -2.4679     1.9889 H       
  43 H43            0.1152    -2.4037    -0.3748 H       
  44 H44           -1.2977    -3.5219    -0.1413 H       
  45 H45           -2.9054    -1.6887    -0.3886 H       
  46 H46            0.5345    -1.5173    -1.8907 H       
@<TRIPOS>BOND
   1    1    2 1
   2    1    6 am
   3    1   29 1
   4    2    3 2
   5    2   17 1
   6    3    4 1
   7    4    5 2
   8    4    7 1
   9    5    6 1
  10    5    9 1
  11    6   10 2
  12    7    8 1
  13    7   11 1
  14    8    9 2
  15    9   30 1
  16   11   12 1
  17   11   16 1
  18   11   31 1
  19   12   13 1
  20   12   32 1
  21   12   33 1
  22   13   14 1
  23   13   34 1
  24   13   35 1
  25   14   15 1
  26   14   21 1
  27   14   22 1
  28   15   16 1
  29   15   36 1
  30   15   37 1
  31   16   38 1
  32   16   39 1
  33   17   18 1
  34   17   20 1
  35   17   40 1
  36   18   19 1
  37   18   41 1
  38   18   42 1
  39   19   20 1
  40   19   43 1
  41   19   44 1
  42   20   23 1
  43   20   45 1
  44   23   24 2
  45   23   27 1
  46   24   25 1
  47   24   46 1
  48   25   26 1
  49   26   27 2
  50   26   28 1

#	End of record

