#	Name: ASD00111064
#	Creating user name:	WinNT
#	Creation time:	15. 06. 2019 18:30

#	Modifying user name:	WinNT
#	Modification time:	15. 06. 2019 18:30

#	Program:	/corina/corina34_cracker 3.40 0067  02.08.2006

@<TRIPOS>MOLECULE
ASD00111064
  33   34    0    0    0
SMALL
NO_CHARGES


@<TRIPOS>ATOM
   1 N1             0.2938     1.5591     0.0549 N.am    
   2 C2             0.1639     0.1070    -0.0171 C.3     
   3 C3             0.6302    -0.5204     1.3012 C.3     
   4 C4             2.1404    -0.6032     1.2906 C.ar    
   5 C5             2.8973     0.5382     1.3942 C.ar    
   6 C6             2.2276     1.8885     1.5199 C.3     
   7 C7             1.5788     2.2408     0.1755 C.3     
   8 C8             4.2783     0.4628     1.3854 C.ar    
   9 C9             4.8990    -0.7729     1.2712 C.ar    
  10 C10            4.1325    -1.9251     1.1661 C.ar    
  11 C11            2.7525    -1.8395     1.1765 C.ar    
  12 C12            0.1720     0.3491     2.4738 C.3     
  13 O13            6.2557    -0.8547     1.2617 O.3     
  14 Br14           4.9748    -3.6109     1.0094 Br      
  15 C15           -0.8264     2.3066     0.0019 C.2     
  16 O16           -1.9090     1.7701    -0.1031 O.2     
  17 C17           -0.7337     3.8091     0.0733 C.3     
  18 F18           -2.0178     4.3595    -0.0005 F       
  19 F19           -0.1350     4.1825     1.2813 F       
  20 F20            0.0376     4.2799    -0.9947 F       
  21 H21           -0.8790    -0.1553    -0.1946 H       
  22 H22            0.7764    -0.2716    -0.8354 H       
  23 H23            0.2097    -1.5213     1.3988 H       
  24 H24            1.4629     1.8467     2.2955 H       
  25 H25            2.9712     2.6431     1.7764 H       
  26 H26            2.2337     1.9262    -0.6370 H       
  27 H27            1.4242     3.3183     0.1190 H       
  28 H28            4.8710     1.3619     1.4669 H       
  29 H29            2.1538    -2.7347     1.0950 H       
  30 H30           -0.7894    -0.0114     2.8396 H       
  31 H31            0.9089     0.2958     3.2753 H       
  32 H32            0.0702     1.3824     2.1420 H       
  33 H33            6.6496    -0.9591     2.1387 H       
@<TRIPOS>BOND
   1    1    2 1
   2    1    7 1
   3    1   15 am
   4    2    3 1
   5    2   21 1
   6    2   22 1
   7    3    4 1
   8    3   12 1
   9    3   23 1
  10    4    5 ar
  11    4   11 ar
  12    5    6 1
  13    5    8 ar
  14    6    7 1
  15    6   24 1
  16    6   25 1
  17    7   26 1
  18    7   27 1
  19    8    9 ar
  20    8   28 1
  21    9   10 ar
  22    9   13 1
  23   10   11 ar
  24   10   14 1
  25   11   29 1
  26   12   30 1
  27   12   31 1
  28   12   32 1
  29   13   33 1
  30   15   16 2
  31   15   17 1
  32   17   18 1
  33   17   19 1
  34   17   20 1

#	End of record

