#	Name: ASD00844927
#	Creating user name:	WinNT
#	Creation time:	15. 06. 2019 18:51

#	Modifying user name:	WinNT
#	Modification time:	15. 06. 2019 18:51

#	Program:	/corina/corina34_cracker 3.40 0067  02.08.2006

@<TRIPOS>MOLECULE
ASD00844927
  83   88    0    0    0
SMALL
NO_CHARGES


@<TRIPOS>ATOM
   1 F1             5.7048    -2.1656    -1.9879 F       
   2 C2             0.7455     1.2754    -0.4813 C.ar    
   3 C3             0.9926    -0.0680    -0.7227 C.ar    
   4 C4             0.8669    -0.9900     0.3066 C.ar    
   5 C5             0.4961    -0.5682     1.5685 C.ar    
   6 C6             0.2499     0.7716     1.8065 C.ar    
   7 C7             0.3750     1.6922     0.7828 C.ar    
   8 C8             1.1341    -2.4503     0.0477 C.3     
   9 C9             0.8026    -3.2752     1.2728 C.2     
  10 C10            0.3283    -2.9355    -1.1591 C.3     
  11 C11           -1.1328    -2.6384    -0.9398 C.2     
  12 N12           -2.0487    -3.0668    -1.8309 N.am    
  13 O13           -1.4844    -2.0139     0.0386 O.2     
  14 C14           -3.4614    -2.6874    -1.6935 C.3     
  15 C15           -4.3166    -3.9584    -1.7040 C.3     
  16 C16           -4.0032    -4.7689    -2.9637 C.3     
  17 C17           -2.5287    -5.1789    -2.9548 C.3     
  18 C18           -1.6524    -3.9171    -2.9617 C.3     
  19 C19           -4.8805    -6.0220    -2.9949 C.3     
  20 C20           -6.3561    -5.6134    -3.0055 C.3     
  21 C21           -7.2272    -6.8683    -3.0982 C.3     
  22 N22           -6.8962    -7.6060    -4.3241 N.3     
  23 C23           -5.4964    -8.0497    -4.3152 C.3     
  24 C24           -4.5736    -6.8301    -4.2588 C.3     
  25 H25           -7.5220    -8.3863    -4.4566 H       
  26 O26           -0.2849    -3.3758     1.8003 O.2     
  27 N27            1.9383    -3.8755     1.6661 N.am    
  28 C28            2.6115    -2.6882    -0.1682 C.ar    
  29 C29            3.0195    -3.5528     0.8424 C.ar    
  30 C30            3.5029    -2.2249    -1.1107 C.ar    
  31 C31            4.8291    -2.6180    -1.0640 C.ar    
  32 C32            5.2573    -3.4868    -0.0550 C.ar    
  33 C33            4.3496    -3.9524     0.8959 C.ar    
  34 C34            1.7225    -6.5180     2.4044 C.ar    
  35 C35            2.7641    -7.3145     1.9665 C.ar    
  36 C36            0.4294    -7.0065     2.3989 C.ar    
  37 C37            0.1778    -8.2914     1.9556 C.ar    
  38 C38            1.2193    -9.0877     1.5173 C.ar    
  39 C39            2.5124    -8.5993     1.5228 C.ar    
  40 H40            1.0227   -10.0916     1.1710 H       
  41 H41            3.7744    -6.9328     1.9708 H       
  42 S42            2.0442    -4.8828     2.9763 S.o2    
  43 O43            3.4037    -4.8622     3.3893 O.2     
  44 O44            0.9657    -4.5386     3.8352 O.2     
  45 O45            1.3568    -0.4805    -1.9653 O.3     
  46 C46            1.3866     0.5100    -2.9949 C.3     
  47 C47            1.8978    -0.1187    -4.2927 C.3     
  48 F48            3.1507    -0.6992    -4.0678 F       
  49 F49            0.9987    -1.1013    -4.7207 F       
  50 C50            6.6276    -3.8988     0.0011 C.1     
  51 N51            7.7146    -4.2257     0.0457 N.1     
  52 H52            0.8471     1.9956    -1.2797 H       
  53 H53            0.3981    -1.2855     2.3699 H       
  54 H54           -0.0406     1.0992     2.7937 H       
  55 H55            0.1821     2.7380     0.9712 H       
  56 H56            0.6728    -2.4215    -2.0564 H       
  57 H57            0.4664    -4.0099    -1.2801 H       
  58 H58           -3.6074    -2.1565    -0.7527 H       
  59 H59           -3.7502    -2.0458    -2.5260 H       
  60 H60           -4.0906    -4.5562    -0.8210 H       
  61 H61           -5.3722    -3.6867    -1.6994 H       
  62 H62           -4.2060    -4.1618    -3.8459 H       
  63 H63           -2.3195    -5.7652    -2.0601 H       
  64 H64           -2.3118    -5.7758    -3.8406 H       
  65 H65           -1.7948    -3.3783    -3.8984 H       
  66 H66           -0.6049    -4.1992    -2.8557 H       
  67 H67           -4.6774    -6.6309    -2.1139 H       
  68 H68           -6.5910    -5.0744    -2.0877 H       
  69 H69           -6.5498    -4.9716    -3.8650 H       
  70 H70           -7.0430    -7.5031    -2.2315 H       
  71 H71           -8.2781    -6.5800    -3.1204 H       
  72 H72           -5.3204    -8.6789    -3.4427 H       
  73 H73           -5.2902    -8.6195    -5.2213 H       
  74 H74           -4.7393    -6.2074    -5.1380 H       
  75 H75           -3.5351    -7.1602    -4.2365 H       
  76 H76            3.1663    -1.5543    -1.8874 H       
  77 H77            4.6806    -4.6233     1.6748 H       
  78 H78           -0.3843    -6.3844     2.7413 H       
  79 H79           -0.8325    -8.6733     1.9520 H       
  80 H80            3.3262    -9.2215     1.1807 H       
  81 H81            0.3814     0.9011    -3.1520 H       
  82 H82            2.0503     1.3222    -2.6986 H       
  83 H83            1.9865     0.6513    -5.0591 H       
@<TRIPOS>BOND
   1    1   31 1
   2    2    3 ar
   3    2    7 ar
   4    2   52 1
   5    3    4 ar
   6    3   45 1
   7    4    5 ar
   8    4    8 1
   9    5    6 ar
  10    5   53 1
  11    6    7 ar
  12    6   54 1
  13    7   55 1
  14    8    9 1
  15    8   10 1
  16    8   28 1
  17    9   26 2
  18    9   27 am
  19   10   11 1
  20   10   56 1
  21   10   57 1
  22   11   12 am
  23   11   13 2
  24   12   14 1
  25   12   18 1
  26   14   15 1
  27   14   58 1
  28   14   59 1
  29   15   16 1
  30   15   60 1
  31   15   61 1
  32   16   17 1
  33   16   19 1
  34   16   62 1
  35   17   18 1
  36   17   63 1
  37   17   64 1
  38   18   65 1
  39   18   66 1
  40   19   20 1
  41   19   24 1
  42   19   67 1
  43   20   21 1
  44   20   68 1
  45   20   69 1
  46   21   22 1
  47   21   70 1
  48   21   71 1
  49   22   23 1
  50   22   25 1
  51   23   24 1
  52   23   72 1
  53   23   73 1
  54   24   74 1
  55   24   75 1
  56   27   42 am
  57   27   29 1
  58   28   29 ar
  59   28   30 ar
  60   29   33 ar
  61   30   31 ar
  62   30   76 1
  63   31   32 ar
  64   32   33 ar
  65   32   50 1
  66   33   77 1
  67   34   35 ar
  68   34   36 ar
  69   34   42 1
  70   35   41 1
  71   35   39 ar
  72   36   37 ar
  73   36   78 1
  74   37   38 ar
  75   37   79 1
  76   38   39 ar
  77   38   40 1
  78   39   80 1
  79   42   43 2
  80   42   44 2
  81   45   46 1
  82   46   47 1
  83   46   81 1
  84   46   82 1
  85   47   48 1
  86   47   49 1
  87   47   83 1
  88   50   51 3

#	End of record

