#	Name: ASD01880544
#	Creating user name:	WinNT
#	Creation time:	15. 06. 2019 19:40

#	Modifying user name:	WinNT
#	Modification time:	15. 06. 2019 19:40

#	Program:	/corina/corina34_cracker 3.40 0067  02.08.2006

@<TRIPOS>MOLECULE
ASD01880544
  38   40    0    0    0
SMALL
NO_CHARGES


@<TRIPOS>ATOM
   1 N1            -0.0158     1.3135     0.0093 N.ar    
   2 C2             0.0021    -0.0041     0.0020 C.ar    
   3 N3             1.1318    -0.6829    -0.0120 N.ar    
   4 C4             2.2994    -0.0573    -0.0198 C.ar    
   5 C5             2.3214     1.3299    -0.0130 C.ar    
   6 C6             1.1124     2.0080     0.0022 C.ar    
   7 C7             3.6277     2.0813    -0.0214 C.3     
   8 O8             4.0280     2.3255    -1.3713 O.3     
   9 C9             5.1926     2.9972    -1.5566 C.ar    
  10 C10            5.6410     3.2685    -2.8456 C.ar    
  11 C11            6.8189     3.9484    -3.0317 C.ar    
  12 C12            7.5734     4.3713    -1.9323 C.ar    
  13 C13            7.1182     4.0966    -0.6397 C.ar    
  14 C14            5.9333     3.4185    -0.4587 C.ar    
  15 C15            7.5711     4.3940    -4.2609 C.3     
  16 N16            8.7742     5.0815    -3.7783 N.am    
  17 C17            8.7715     5.0661    -2.4343 C.2     
  18 O18            9.6350     5.5563    -1.7326 O.2     
  19 Cl19           3.7817    -0.9608    -0.0376 Cl      
  20 Br20           1.0740     3.8986     0.0115 Br      
  21 C21           10.5292     7.7754    -5.7854 C.3     
  22 C22            9.4491     7.1452    -4.9039 C.3     
  23 C23            9.8085     5.6849    -4.6224 C.3     
  24 H24           -0.9343    -0.5423     0.0081 H       
  25 H25            3.5038     3.0313     0.4984 H       
  26 H26            4.3911     1.4883     0.4823 H       
  27 H27            5.0632     2.9443    -3.6986 H       
  28 H28            7.6934     4.4184     0.2159 H       
  29 H29            5.5820     3.2068     0.5403 H       
  30 H30            7.8499     3.5295    -4.8635 H       
  31 H31            6.9584     5.0784    -4.8476 H       
  32 H32           10.2732     8.8157    -5.9860 H       
  33 H33           11.4895     7.7300    -5.2718 H       
  34 H34           10.5944     7.2293    -6.7265 H       
  35 H35            9.3839     7.6912    -3.9628 H       
  36 H36            8.4888     7.1905    -5.4175 H       
  37 H37           10.7688     5.6395    -4.1087 H       
  38 H38            9.8736     5.1388    -5.5635 H       
@<TRIPOS>BOND
   1    1    2 ar
   2    1    6 ar
   3    2    3 ar
   4    2   24 1
   5    3    4 ar
   6    4    5 ar
   7    4   19 1
   8    5    6 ar
   9    5    7 1
  10    6   20 1
  11    7    8 1
  12    7   25 1
  13    7   26 1
  14    8    9 1
  15    9   10 ar
  16    9   14 ar
  17   10   11 ar
  18   10   27 1
  19   11   12 ar
  20   11   15 1
  21   12   13 ar
  22   12   17 1
  23   13   14 ar
  24   13   28 1
  25   14   29 1
  26   15   16 1
  27   15   30 1
  28   15   31 1
  29   16   17 am
  30   16   23 1
  31   17   18 2
  32   21   22 1
  33   21   32 1
  34   21   33 1
  35   21   34 1
  36   22   23 1
  37   22   35 1
  38   22   36 1
  39   23   37 1
  40   23   38 1

#	End of record

