#	Name: ASD01815883
#	Creating user name:	WinNT
#	Creation time:	15. 06. 2019 19:34

#	Modifying user name:	WinNT
#	Modification time:	15. 06. 2019 19:34

#	Program:	/corina/corina34_cracker 3.40 0067  02.08.2006

@<TRIPOS>MOLECULE
ASD01815883
  57   62    0    0    0
SMALL
NO_CHARGES


@<TRIPOS>ATOM
   1 C1            -0.0167     1.3812     0.0096 C.ar    
   2 C2             0.0021    -0.0041     0.0020 C.ar    
   3 C3             1.1984    -0.6908    -0.0131 C.ar    
   4 C4             2.4015     0.0061    -0.0204 C.ar    
   5 C5             2.3789     1.4106    -0.0127 C.ar    
   6 C6             1.1664     2.0916     0.0022 C.ar    
   7 N7             3.6054    -0.6770    -0.0347 N.pl3   
   8 C8             4.7971    -0.0584    -0.0423 C.2     
   9 C9             4.9001     1.3105    -0.0364 C.2     
  10 C10            3.6673     2.1304    -0.0207 C.2     
  11 C11            5.9972     2.2731    -0.0422 C.2     
  12 N12            5.4244     3.4961    -0.0313 N.am    
  13 N13            4.0322     3.3795    -0.0185 N.2     
  14 C14            6.1581     4.7641    -0.0316 C.3     
  15 O15            7.1917     2.0232    -0.0541 O.2     
  16 C16            3.5781    -2.1418    -0.0413 C.3     
  17 C17            3.5556    -2.6374    -1.4643 C.ar    
  18 C18            4.7445    -2.8863    -2.1261 C.ar    
  19 C19            4.7298    -3.3403    -3.4293 C.ar    
  20 C20            3.5144    -3.5478    -4.0784 C.ar    
  21 C21            2.3199    -3.2954    -3.4070 C.ar    
  22 C22            2.3462    -2.8470    -2.1019 C.ar    
  23 C23            3.4923    -4.0353    -5.4798 C.ar    
  24 C24            2.2770    -4.2428    -6.1288 C.ar    
  25 C25            2.2623    -4.6964    -7.4323 C.ar    
  26 C26            3.4511    -4.9454    -8.0940 C.ar    
  27 C27            4.6605    -4.7416    -7.4544 C.ar    
  28 C28            4.6870    -4.2819    -6.1532 C.ar    
  29 C29            6.3973     5.2057    -1.4525 C.ar    
  30 C30            5.4709     6.0079    -2.0922 C.ar    
  31 C31            5.6903     6.4129    -3.3955 C.ar    
  32 C32            6.8363     6.0162    -4.0590 C.ar    
  33 C33            7.7631     5.2148    -3.4190 C.ar    
  34 C34            7.5458     4.8134    -2.1142 C.ar    
  35 H35           -0.9602     1.9068     0.0170 H       
  36 H36           -0.9288    -0.5516     0.0083 H       
  37 H37            1.2005    -1.7708    -0.0189 H       
  38 H38            1.1508     3.1714     0.0084 H       
  39 H39            5.6984    -0.6535    -0.0530 H       
  40 H40            5.5743     5.5219     0.4910 H       
  41 H41            7.1149     4.6304     0.4732 H       
  42 H42            4.4658    -2.5240     0.4626 H       
  43 H43            2.6862    -2.4908     0.4791 H       
  44 H44            5.6860    -2.7248    -1.6221 H       
  45 H45            5.6586    -3.5340    -3.9452 H       
  46 H46            1.3751    -3.4545    -3.9054 H       
  47 H47            1.4209    -2.6510    -1.5805 H       
  48 H48            1.3481    -4.0494    -5.6128 H       
  49 H49            1.3208    -4.8576    -7.9363 H       
  50 H50            3.4350    -5.3006    -9.1138 H       
  51 H51            5.5858    -4.9380    -7.9756 H       
  52 H52            5.6318    -4.1227    -5.6548 H       
  53 H53            4.5756     6.3178    -1.5739 H       
  54 H54            4.9662     7.0390    -3.8956 H       
  55 H55            7.0074     6.3321    -5.0775 H       
  56 H56            8.6583     4.9046    -3.9374 H       
  57 H57            8.2700     4.1873    -1.6141 H       
@<TRIPOS>BOND
   1    1    2 ar
   2    1    6 ar
   3    1   35 1
   4    2    3 ar
   5    2   36 1
   6    3    4 ar
   7    3   37 1
   8    4    5 ar
   9    4    7 1
  10    5    6 ar
  11    5   10 1
  12    6   38 1
  13    7    8 1
  14    7   16 1
  15    8    9 2
  16    8   39 1
  17    9   10 1
  18    9   11 1
  19   10   13 2
  20   11   12 am
  21   11   15 2
  22   12   13 1
  23   12   14 1
  24   14   29 1
  25   14   40 1
  26   14   41 1
  27   16   17 1
  28   16   42 1
  29   16   43 1
  30   17   18 ar
  31   17   22 ar
  32   18   19 ar
  33   18   44 1
  34   19   20 ar
  35   19   45 1
  36   20   21 ar
  37   20   23 1
  38   21   22 ar
  39   21   46 1
  40   22   47 1
  41   23   24 ar
  42   23   28 ar
  43   24   25 ar
  44   24   48 1
  45   25   26 ar
  46   25   49 1
  47   26   27 ar
  48   26   50 1
  49   27   28 ar
  50   27   51 1
  51   28   52 1
  52   29   30 ar
  53   29   34 ar
  54   30   31 ar
  55   30   53 1
  56   31   32 ar
  57   31   54 1
  58   32   33 ar
  59   32   55 1
  60   33   34 ar
  61   33   56 1
  62   34   57 1

#	End of record

