#	Name: ASD05313128
#	Creating user name:	WinNT
#	Creation time:	15. 06. 2019 20:58

#	Modifying user name:	WinNT
#	Modification time:	15. 06. 2019 20:58

#	Program:	/corina/corina34_cracker 3.40 0067  02.08.2006

@<TRIPOS>MOLECULE
ASD05313128
  39   42    0    0    0
SMALL
NO_CHARGES


@<TRIPOS>ATOM
   1 C1            -0.2531     0.9612     1.1346 C.2     
   2 C2            -0.0249    -0.5040     0.8497 C.3     
   3 N3             0.7478     1.8852     1.1863 N.pl3   
   4 N4             1.3727    -0.6410     0.3976 N.am    
   5 C5             2.4132     0.1016     1.1248 C.3     
   6 C6             2.1657     1.6065     0.9660 C.3     
   7 N7            -1.1441     2.8302     1.5753 N.2     
   8 N8            -1.3704     1.5775     1.3742 N.2     
   9 C9             0.1469     3.0724     1.4727 C.2     
  10 C10            0.8151     4.3817     1.6402 C.ar    
  11 C11            2.1103     4.5736     1.1586 C.ar    
  12 C12            2.7286     5.7989     1.3183 C.ar    
  13 C13            2.0638     6.8348     1.9553 C.ar    
  14 C14            0.7801     6.6485     2.4345 C.ar    
  15 C15            0.1503     5.4309     2.2752 C.ar    
  16 F16            3.9830     5.9873     0.8533 F       
  17 C17            1.6873    -1.4253    -0.6523 C.2     
  18 O18            2.8278    -1.4496    -1.0728 O.2     
  19 C19            0.6468    -2.2549    -1.2920 C.ar    
  20 C20            0.5572    -2.3169    -2.6858 C.ar    
  21 C21           -0.4172    -3.0945    -3.2774 C.ar    
  22 C22           -1.3053    -3.8127    -2.4922 C.ar    
  23 C23           -1.2207    -3.7541    -1.1092 C.ar    
  24 C24           -0.2481    -2.9854    -0.5070 C.ar    
  25 F25           -2.2574    -4.5726    -3.0764 F       
  26 Cl26           1.6688    -1.4172    -3.6700 Cl      
  27 H27           -0.1817    -1.0882     1.7564 H       
  28 H28           -0.7041    -0.8410     0.0665 H       
  29 H29            2.3782    -0.1633     2.1815 H       
  30 H30            3.3923    -0.1512     0.7179 H       
  31 H31            2.4459     1.9173    -0.0405 H       
  32 H32            2.7621     2.1531     1.6964 H       
  33 H33            2.6285     3.7663     0.6625 H       
  34 H34            2.5504     7.7911     2.0783 H       
  35 H35            0.2674     7.4593     2.9307 H       
  36 H36           -0.8542     5.2891     2.6459 H       
  37 H37           -0.4881    -3.1433    -4.3539 H       
  38 H38           -1.9160    -4.3154    -0.5027 H       
  39 H39           -0.1806    -2.9448     0.5701 H       
@<TRIPOS>BOND
   1    1    2 1
   2    1    3 1
   3    1    8 2
   4    2    4 1
   5    2   27 1
   6    2   28 1
   7    3    6 1
   8    3    9 1
   9    4    5 1
  10    4   17 am
  11    5    6 1
  12    5   29 1
  13    5   30 1
  14    6   31 1
  15    6   32 1
  16    7    8 1
  17    7    9 2
  18    9   10 1
  19   10   11 ar
  20   10   15 ar
  21   11   12 ar
  22   11   33 1
  23   12   13 ar
  24   12   16 1
  25   13   14 ar
  26   13   34 1
  27   14   15 ar
  28   14   35 1
  29   15   36 1
  30   17   18 2
  31   17   19 1
  32   19   20 ar
  33   19   24 ar
  34   20   21 ar
  35   20   26 1
  36   21   22 ar
  37   21   37 1
  38   22   23 ar
  39   22   25 1
  40   23   24 ar
  41   23   38 1
  42   24   39 1

#	End of record

