#	Name: ASD01917809
#	Creating user name:	WinNT
#	Creation time:	15. 06. 2019 20:10

#	Modifying user name:	WinNT
#	Modification time:	15. 06. 2019 20:10

#	Program:	/corina/corina34_cracker 3.40 0067  02.08.2006

@<TRIPOS>MOLECULE
ASD01917809
  43   46    0    0    0
SMALL
NO_CHARGES


@<TRIPOS>ATOM
   1 C1             0.0094     1.2785    -0.0918 C.2     
   2 C2            -0.0035    -0.0682    -0.0806 C.2     
   3 C3            -1.2526    -0.9109    -0.0277 C.3     
   4 C4            -2.4179    -0.0392     0.4571 C.3     
   5 N5            -2.3870     1.2468    -0.2556 N.am    
   6 C6            -1.2308     2.1364    -0.0426 C.3     
   7 C7            -3.3897     1.6029    -1.0828 C.2     
   8 O8            -4.2810     0.8132    -1.3337 O.2     
   9 O9             1.2899     1.6678    -0.1471 O.3     
  10 C10            2.0486     0.5605    -0.1656 C.2     
  11 N11            1.2689    -0.4851    -0.1252 N.2     
  12 C12            3.5542     0.5300    -0.2242 C.3     
  13 O13            3.9775     0.5075    -1.5888 O.3     
  14 C14            5.3165     0.4785    -1.8191 C.ar    
  15 C15            5.7975     0.4555    -3.1201 C.ar    
  16 C16            7.1591     0.4260    -3.3515 C.ar    
  17 C17            8.0423     0.4195    -2.2877 C.ar    
  18 C18            7.5655     0.4419    -0.9901 C.ar    
  19 C19            6.2049     0.4776    -0.7535 C.ar    
  20 C20           -3.4068     2.9421    -1.6804 C.2     
  21 O21           -2.5542     3.9482    -1.3956 O.3     
  22 C22           -2.8707     5.0210    -2.1323 C.2     
  23 C23           -3.9370     4.7184    -2.9052 C.2     
  24 C24           -4.2846     3.3873    -2.6267 C.2     
  25 C25           -2.1556     6.3472    -2.1038 C.3     
  26 H26           -1.4748    -1.2974    -1.0223 H       
  27 H27           -1.1046    -1.7402     0.6639 H       
  28 H28           -3.3612    -0.5460     0.2535 H       
  29 H29           -2.3209     0.1357     1.5286 H       
  30 H30           -1.3089     2.6194     0.9314 H       
  31 H31           -1.1925     2.8898    -0.8293 H       
  32 H32            3.9549     1.4173     0.2660 H       
  33 H33            3.9196    -0.3622     0.2843 H       
  34 H34            5.1080     0.4603    -3.9514 H       
  35 H35            7.5341     0.4078    -4.3642 H       
  36 H36            9.1065     0.3964    -2.4707 H       
  37 H37            8.2574     0.4360    -0.1609 H       
  38 H38            5.8329     0.4952     0.2603 H       
  39 H39           -4.4275     5.3760    -3.6076 H       
  40 H40           -5.0915     2.8249    -3.0729 H       
  41 H41           -1.3347     6.3020    -1.3880 H       
  42 H42           -1.7611     6.5686    -3.0955 H       
  43 H43           -2.8536     7.1301    -1.8072 H       
@<TRIPOS>BOND
   1    1    2 2
   2    1    9 1
   3    1    6 1
   4    2    3 1
   5    2   11 1
   6    3    4 1
   7    3   26 1
   8    3   27 1
   9    4    5 1
  10    4   28 1
  11    4   29 1
  12    5    6 1
  13    5    7 am
  14    6   30 1
  15    6   31 1
  16    7    8 2
  17    7   20 1
  18    9   10 1
  19   10   11 2
  20   10   12 1
  21   12   13 1
  22   12   32 1
  23   12   33 1
  24   13   14 1
  25   14   15 ar
  26   14   19 ar
  27   15   16 ar
  28   15   34 1
  29   16   17 ar
  30   16   35 1
  31   17   18 ar
  32   17   36 1
  33   18   19 ar
  34   18   37 1
  35   19   38 1
  36   20   24 2
  37   20   21 1
  38   21   22 1
  39   22   23 2
  40   22   25 1
  41   23   24 1
  42   23   39 1
  43   24   40 1
  44   25   41 1
  45   25   42 1
  46   25   43 1

#	End of record

