#	Name: ASD01028324
#	Creating user name:	WinNT
#	Creation time:	15. 06. 2019 18:56

#	Modifying user name:	WinNT
#	Modification time:	15. 06. 2019 18:56

#	Program:	/corina/corina34_cracker 3.40 0067  02.08.2006

@<TRIPOS>MOLECULE
ASD01028324
  43   47    0    0    0
SMALL
NO_CHARGES


@<TRIPOS>ATOM
   1 C1            -0.0169     1.3931     0.0097 C.ar    
   2 C2             0.0021    -0.0041     0.0020 C.ar    
   3 C3             1.1979     2.1024     0.0019 C.ar    
   4 C4             2.3823     1.3854    -0.0133 C.ar    
   5 C5             2.3316    -0.0010    -0.0203 C.ar    
   6 N6             1.1917    -0.6431    -0.0135 N.ar    
   7 O7             1.2087     3.4599     0.0087 O.3     
   8 C8             2.4870     4.0986    -0.0001 C.3     
   9 C9             2.3015     5.5941     0.0092 C.2     
  10 N10            2.2135     6.3798     1.1047 N.pl3   
  11 C11            2.0507     7.6630     0.6390 C.2     
  12 N12            2.0481     7.5932    -0.6821 N.2     
  13 N13            2.2021     6.3672    -1.0433 N.2     
  14 N14            2.2553     6.1336     2.4785 N.2     
  15 C15            2.1398     7.1228     3.3368 C.2     
  16 C16            1.9711     8.4505     2.8901 C.2     
  17 C17            1.9279     8.7215     1.5589 C.2     
  18 C18            2.1868     6.8395     4.7924 C.ar    
  19 C19            2.3525     5.5321     5.2454 C.ar    
  20 C20            2.3960     5.2744     6.6006 C.ar    
  21 C21            2.2751     6.3110     7.5086 C.ar    
  22 C22            2.1104     7.6106     7.0645 C.ar    
  23 C23            2.0712     7.8805     5.7115 C.ar    
  24 C24           -1.2874    -0.5592     0.0114 C.2     
  25 C25           -2.2952     0.3203     0.0257 C.2     
  26 S26           -1.6803     1.9642     0.0358 S.3     
  27 C27           -3.7219    -0.0405     0.0366 C.2     
  28 O28           -4.0533    -1.2108     0.0328 O.2     
  29 N29           -4.6613     0.9258     0.0508 N.am    
  30 H30            3.3327     1.8984    -0.0199 H       
  31 H31            3.2538    -0.5629    -0.0321 H       
  32 H32            3.0500     3.7968     0.8832 H       
  33 H33            3.0333     3.8058    -0.8967 H       
  34 H34            1.8769     9.2528     3.6070 H       
  35 H35            1.7991     9.7359     1.2113 H       
  36 H36            2.4463     4.7220     4.5374 H       
  37 H37            2.5244     4.2616     6.9528 H       
  38 H38            2.3090     6.1047     8.5681 H       
  39 H39            2.0161     8.4161     7.7778 H       
  40 H40            1.9427     8.8956     5.3659 H       
  41 H41           -1.4547    -1.6261     0.0069 H       
  42 H42           -4.3971     1.8591     0.0539 H       
  43 H43           -5.6017     0.6880     0.0580 H       
@<TRIPOS>BOND
   1    1    2 ar
   2    1    3 ar
   3    1   26 1
   4    2   24 1
   5    2    6 ar
   6    3    4 ar
   7    3    7 1
   8    4    5 ar
   9    4   30 1
  10    5    6 ar
  11    5   31 1
  12    7    8 1
  13    8    9 1
  14    8   32 1
  15    8   33 1
  16    9   10 1
  17    9   13 2
  18   10   11 1
  19   10   14 1
  20   11   12 2
  21   11   17 1
  22   12   13 1
  23   14   15 2
  24   15   16 1
  25   15   18 1
  26   16   17 2
  27   16   34 1
  28   17   35 1
  29   18   19 ar
  30   18   23 ar
  31   19   20 ar
  32   19   36 1
  33   20   21 ar
  34   20   37 1
  35   21   22 ar
  36   21   38 1
  37   22   23 ar
  38   22   39 1
  39   23   40 1
  40   24   25 2
  41   24   41 1
  42   25   26 1
  43   25   27 1
  44   27   28 2
  45   27   29 am
  46   29   42 1
  47   29   43 1

#	End of record

