#	Name: ASD03910073
#	Creating user name:	WinNT
#	Creation time:	15. 06. 2019 20:47

#	Modifying user name:	WinNT
#	Modification time:	15. 06. 2019 20:47

#	Program:	/corina/corina34_cracker 3.40 0067  02.08.2006

@<TRIPOS>MOLECULE
ASD03910073
  73   75    0    0    0
SMALL
NO_CHARGES


@<TRIPOS>ATOM
   1 C1             0.0385    16.2513    -5.8367 C.ar    
   2 C2             1.1121    17.1002    -6.0340 C.ar    
   3 C3             2.3839    16.7108    -5.6558 C.ar    
   4 C4             2.5857    15.4718    -5.0799 C.ar    
   5 C5             1.5096    14.6169    -4.8804 C.ar    
   6 C6             0.2327    15.0134    -5.2557 C.ar    
   7 N7             1.7107    13.3610    -4.2973 N.am    
   8 C8             0.7637    12.8291    -3.4993 C.2     
   9 O9            -0.2228    13.4749    -3.2154 O.2     
  10 C10           -0.2573    11.0792    -2.1024 C.ar    
  11 C11           -1.3653    10.4790    -2.6714 C.ar    
  12 C12           -2.4533    10.1495    -1.8865 C.ar    
  13 C13           -2.4336    10.4214    -0.5262 C.ar    
  14 C14           -1.3206    11.0237     0.0423 C.ar    
  15 C15           -0.2352    11.3512    -0.7469 C.ar    
  16 O16           -3.5028    10.0986     0.2480 O.3     
  17 C17           -3.4005    10.3797     1.6454 C.3     
  18 C18           -2.2781     9.5776     2.2520 C.2     
  19 C19           -1.3458    16.6797    -6.2504 C.3     
  20 C20            3.5510    17.6392    -5.8726 C.3     
  21 O21           -1.5852    10.0645     3.1201 O.2     
  22 N22           -2.0445     8.3192     1.8298 N.am    
  23 C23            0.9307    11.4319    -2.9599 C.3     
  24 C24           -0.8928     7.5753     2.3461 C.3     
  25 C25            0.3445     7.9718     1.5826 C.2     
  26 O26            0.2718     8.7916     0.6980 O.2     
  27 O27            1.5274     7.4142     1.8853 O.3     
  28 C28           -1.1375     6.0745     2.1769 C.3     
  29 C29           -3.1523    11.8825     1.8639 C.3     
  30 C30           -4.3410    12.4092     2.6942 C.3     
  31 C31           -4.8818    11.1536     3.4223 C.3     
  32 C32           -4.7309    10.0445     2.3507 C.3     
  33 C33           -2.3415     5.6555     3.0229 C.3     
  34 C34           -2.6612     4.1825     2.7606 C.3     
  35 C35           -3.8652     3.7635     3.6066 C.3     
  36 N36           -4.1723     2.3492     3.3547 N.3     
  37 H37            0.9569    18.0694    -6.4847 H       
  38 H38            3.5793    15.1680    -4.7854 H       
  39 H39           -0.6062    14.3510    -5.1016 H       
  40 H40            2.5317    12.8731    -4.4673 H       
  41 H41           -1.3803    10.2678    -3.7304 H       
  42 H42           -3.3187     9.6810    -2.3315 H       
  43 H43           -1.3030    11.2367     1.1010 H       
  44 H44            0.6315    11.8202    -0.3048 H       
  45 H45           -1.5278    16.3748    -7.2809 H       
  46 H46           -2.0817    16.2106    -5.5973 H       
  47 H47           -1.4293    17.7637    -6.1721 H       
  48 H48            3.6806    18.2713    -4.9941 H       
  49 H49            4.4557    17.0535    -6.0355 H       
  50 H50            3.3608    18.2643    -6.7451 H       
  51 H51           -2.6388     7.9060     1.1842 H       
  52 H52            1.0018    10.7282    -3.7893 H       
  53 H53            1.8396    11.3800    -2.3605 H       
  54 H54           -0.7565     7.8043     3.4030 H       
  55 H55            2.2928     7.7002     1.3680 H       
  56 H56           -1.3364     5.8548     1.1279 H       
  57 H57           -0.2552     5.5235     2.5025 H       
  58 H58           -2.2206    12.0316     2.4095 H       
  59 H59           -3.1100    12.3974     0.9041 H       
  60 H60           -4.0025    13.1526     3.4160 H       
  61 H61           -5.1055    12.8305     2.0413 H       
  62 H62           -4.2776    10.9261     4.3005 H       
  63 H63           -5.9285    11.2866     3.6960 H       
  64 H64           -5.5581    10.0836     1.6420 H       
  65 H65           -4.6773     9.0632     2.8222 H       
  66 H66           -2.1096     5.7946     4.0788 H       
  67 H67           -3.2033     6.2674     2.7565 H       
  68 H68           -2.8931     4.0435     1.7046 H       
  69 H69           -1.7994     3.5706     3.0269 H       
  70 H70           -3.6334     3.9025     4.6625 H       
  71 H71           -4.7271     4.3754     3.3402 H       
  72 H72           -3.3675     1.7672     3.5328 H       
  73 H73           -4.9645     2.0481     3.9023 H       
@<TRIPOS>BOND
   1    1    2 ar
   2    1   19 1
   3    1    6 ar
   4    2    3 ar
   5    2   37 1
   6    3    4 ar
   7    3   20 1
   8    4    5 ar
   9    4   38 1
  10    5    6 ar
  11    5    7 1
  12    6   39 1
  13    7    8 am
  14    7   40 1
  15    8    9 2
  16    8   23 1
  17   10   11 ar
  18   10   15 ar
  19   10   23 1
  20   11   12 ar
  21   11   41 1
  22   12   13 ar
  23   12   42 1
  24   13   14 ar
  25   13   16 1
  26   14   15 ar
  27   14   43 1
  28   15   44 1
  29   16   17 1
  30   17   18 1
  31   17   29 1
  32   17   32 1
  33   18   21 2
  34   18   22 am
  35   19   45 1
  36   19   46 1
  37   19   47 1
  38   20   48 1
  39   20   49 1
  40   20   50 1
  41   22   24 1
  42   22   51 1
  43   23   52 1
  44   23   53 1
  45   24   25 1
  46   24   28 1
  47   24   54 1
  48   25   26 2
  49   25   27 1
  50   27   55 1
  51   28   33 1
  52   28   56 1
  53   28   57 1
  54   29   30 1
  55   29   58 1
  56   29   59 1
  57   30   31 1
  58   30   60 1
  59   30   61 1
  60   31   32 1
  61   31   62 1
  62   31   63 1
  63   32   64 1
  64   32   65 1
  65   33   34 1
  66   33   66 1
  67   33   67 1
  68   34   35 1
  69   34   68 1
  70   34   69 1
  71   35   36 1
  72   35   70 1
  73   35   71 1
  74   36   72 1
  75   36   73 1

#	End of record

