#	Name: ASD08150333
#	Creating user name:	WinNT
#	Creation time:	15. 06. 2019 21:15

#	Modifying user name:	WinNT
#	Modification time:	15. 06. 2019 21:15

#	Program:	/corina/corina34_cracker 3.40 0067  02.08.2006

@<TRIPOS>MOLECULE
ASD08150333
  87   94    0    0    0
SMALL
NO_CHARGES


@<TRIPOS>ATOM
   1 N1             0.1183     1.4223     2.2658 N.am    
   2 C2             0.1136     0.0911     2.4211 C.2     
   3 N3             1.2372    -0.6497     2.4144 N.am    
   4 C4             2.5358     0.0211     2.2289 C.3     
   5 C5             2.5086     1.5215     2.0565 C.ar    
   6 C6             3.6676     2.2547     1.8748 C.ar    
   7 N7             3.6342     3.5607     1.7251 N.ar    
   8 C8             2.4830     4.2426     1.7409 C.ar    
   9 C9             1.2544     3.5591     1.9226 C.ar    
  10 C10            1.2775     2.1554     2.0846 C.ar    
  11 C11            0.0540     4.2776     1.9392 C.ar    
  12 C12            0.0806     5.6521     1.7776 C.ar    
  13 C13            1.3006     6.3220     1.5982 C.ar    
  14 C14            2.4751     5.6399     1.5789 C.ar    
  15 O15           -0.9528    -0.4720     2.5753 O.2     
  16 C16           -1.1874     6.4211     1.7935 C.ar    
  17 C17           -1.1083     2.1025     2.2819 C.ar    
  18 C18           -1.8888     2.1538     1.1345 C.ar    
  19 C19           -3.0961     2.8228     1.1502 C.ar    
  20 C20           -3.5303     3.4446     2.3140 C.ar    
  21 C21           -2.7496     3.3931     3.4614 C.ar    
  22 C22           -1.5445     2.7194     3.4466 C.ar    
  23 N23           -4.7536     4.1230     2.3301 N.3     
  24 C24           -2.3391     5.8984     1.1839 C.ar    
  25 C25           -5.7978     3.3104     2.9683 C.3     
  26 C26           -7.0682     4.1520     3.1292 C.3     
  27 N27           -7.4290     4.7091     1.8167 N.am    
  28 C28           -6.3921     5.4205     1.0539 C.3     
  29 C29           -5.1483     4.5290     0.9746 C.3     
  30 C30           -8.6766     4.5710     1.3258 C.2     
  31 O31           -9.5192     3.9809     1.9683 O.2     
  32 C32           -9.0246     5.1497    -0.0214 C.3     
  33 N33           -3.4715     6.5548     1.1825 N.ar    
  34 C34           -3.5883     7.7548     1.7610 C.ar    
  35 C35           -2.4700     8.3498     2.3978 C.ar    
  36 C36           -1.2458     7.6597     2.4159 C.ar    
  37 C37          -10.4919     4.8550    -0.3394 C.3     
  38 C38           -4.8130     8.4449     1.7488 C.ar    
  39 C39           -4.9077     9.6652     2.3438 C.ar    
  40 C40           -3.8072    10.2484     2.9688 C.ar    
  41 C41           -2.6045     9.6115     3.0017 C.ar    
  42 C42           -3.2202     4.0681     4.7239 C.3     
  43 F43           -2.2044     4.0203     5.6847 F       
  44 F44           -3.5390     5.4022     4.4485 F       
  45 F45           -4.3539     3.4086     5.2106 F       
  46 C46            1.0303    -2.7650     1.2432 C.ar    
  47 C47            2.1581    -3.1350     0.5346 C.ar    
  48 C48            2.0299    -3.7477    -0.6979 C.ar    
  49 C49            0.7739    -3.9910    -1.2215 C.ar    
  50 C50           -0.3539    -3.6219    -0.5125 C.ar    
  51 C51           -0.2257    -3.0078     0.7194 C.ar    
  52 C52            1.1700    -2.1027     2.5896 C.3     
  53 H53            3.1591    -0.2070     3.0935 H       
  54 H54            3.0149    -0.4100     1.3499 H       
  55 H55            4.6191     1.7442     1.8559 H       
  56 H56           -0.8860     3.7639     2.0768 H       
  57 H57            1.3057     7.3947     1.4733 H       
  58 H58            3.4048     6.1716     1.4401 H       
  59 H59           -1.5509     1.6706     0.2296 H       
  60 H60           -3.7029     2.8630     0.2577 H       
  61 H61           -0.9392     2.6758     4.3400 H       
  62 H62           -2.2894     4.9320     0.7044 H       
  63 H63           -6.0134     2.4415     2.3465 H       
  64 H64           -5.4536     2.9803     3.9484 H       
  65 H65           -7.8798     3.5235     3.4958 H       
  66 H66           -6.8832     4.9634     3.8331 H       
  67 H67           -6.7566     5.6306     0.0484 H       
  68 H68           -6.1421     6.3539     1.5582 H       
  69 H69           -4.3330     5.0826     0.5089 H       
  70 H70           -5.3729     3.6431     0.3806 H       
  71 H71           -8.8657     6.2280    -0.0056 H       
  72 H72           -8.3899     4.7000    -0.7849 H       
  73 H73           -0.3747     8.0844     2.8926 H       
  74 H74          -10.7436     5.2736    -1.3139 H       
  75 H75          -10.6508     3.7768    -0.3552 H       
  76 H76          -11.1266     5.3047     0.4241 H       
  77 H77           -5.6760     8.0081     1.2683 H       
  78 H78           -5.8513    10.1904     2.3311 H       
  79 H79           -3.9097    11.2181     3.4331 H       
  80 H80           -1.7586    10.0732     3.4893 H       
  81 H81            3.1393    -2.9449     0.9437 H       
  82 H82            2.9110    -4.0361    -1.2518 H       
  83 H83            0.6737    -4.4690    -2.1847 H       
  84 H84           -1.3352    -3.8113    -0.9219 H       
  85 H85           -1.1068    -2.7188     1.2730 H       
  86 H86            2.0815    -2.4528     3.0740 H       
  87 H87            0.3094    -2.3545     3.2095 H       
@<TRIPOS>BOND
   1    1    2 am
   2    1   10 1
   3    1   17 1
   4    2    3 am
   5    2   15 2
   6    3    4 1
   7    3   52 1
   8    4    5 1
   9    4   53 1
  10    4   54 1
  11    5    6 ar
  12    5   10 ar
  13    6    7 ar
  14    6   55 1
  15    7    8 ar
  16    8    9 ar
  17    8   14 ar
  18    9   10 ar
  19    9   11 ar
  20   11   12 ar
  21   11   56 1
  22   12   13 ar
  23   12   16 1
  24   13   14 ar
  25   13   57 1
  26   14   58 1
  27   16   24 ar
  28   16   36 ar
  29   17   18 ar
  30   17   22 ar
  31   18   19 ar
  32   18   59 1
  33   19   20 ar
  34   19   60 1
  35   20   21 ar
  36   20   23 1
  37   21   22 ar
  38   21   42 1
  39   22   61 1
  40   23   25 1
  41   23   29 1
  42   24   33 ar
  43   24   62 1
  44   25   26 1
  45   25   63 1
  46   25   64 1
  47   26   27 1
  48   26   65 1
  49   26   66 1
  50   27   28 1
  51   27   30 am
  52   28   29 1
  53   28   67 1
  54   28   68 1
  55   29   69 1
  56   29   70 1
  57   30   31 2
  58   30   32 1
  59   32   37 1
  60   32   71 1
  61   32   72 1
  62   33   34 ar
  63   34   35 ar
  64   34   38 ar
  65   35   36 ar
  66   35   41 ar
  67   36   73 1
  68   37   74 1
  69   37   75 1
  70   37   76 1
  71   38   39 ar
  72   38   77 1
  73   39   40 ar
  74   39   78 1
  75   40   41 ar
  76   40   79 1
  77   41   80 1
  78   42   43 1
  79   42   44 1
  80   42   45 1
  81   46   47 ar
  82   46   51 ar
  83   46   52 1
  84   47   48 ar
  85   47   81 1
  86   48   49 ar
  87   48   82 1
  88   49   50 ar
  89   49   83 1
  90   50   51 ar
  91   50   84 1
  92   51   85 1
  93   52   86 1
  94   52   87 1

#	End of record

