#	Name: ASD02198621
#	Creating user name:	WinNT
#	Creation time:	15. 06. 2019 20:19

#	Modifying user name:	WinNT
#	Modification time:	15. 06. 2019 20:19

#	Program:	/corina/corina34_cracker 3.40 0067  02.08.2006

@<TRIPOS>MOLECULE
ASD02198621
  56   59    0    0    0
SMALL
NO_CHARGES


@<TRIPOS>ATOM
   1 C1             0.1755     1.1336     0.5430 C.2     
   2 C2             0.2290    -0.2051     0.7575 C.2     
   3 N3             1.4150    -0.8527     0.8045 N.pl3   
   4 N4             2.5443    -0.2651     0.6540 N.2     
   5 C5             2.6354     1.0297     0.4395 C.2     
   6 C6             1.3990     1.8246     0.3711 C.2     
   7 C7             1.4094    -2.2336     1.0292 C.ar    
   8 C8             2.5896    -2.9595     0.9238 C.ar    
   9 C9             2.5841    -4.3214     1.1453 C.ar    
  10 C10            1.3983    -4.9670     1.4744 C.ar    
  11 C11            0.2182    -4.2410     1.5802 C.ar    
  12 C12            0.2246    -2.8784     1.3634 C.ar    
  13 C13            3.9545     1.6737     0.2711 C.2     
  14 N14            5.0248     1.1635    -0.4029 N.pl3   
  15 N15            6.0674     2.0945    -0.3171 N.2     
  16 C16            5.6549     3.1250     0.3762 C.2     
  17 C17            4.3323     2.9046     0.7601 C.2     
  18 C18            5.0750    -0.1279    -1.0929 C.3     
  19 C19            4.7573     0.0736    -2.5759 C.3     
  20 O20            1.4271     3.0303     0.1738 O.2     
  21 N21            1.3926    -6.3459     1.6983 N.3     
  22 C22            0.0414    -6.8200     2.0310 C.3     
  23 C23            2.3479    -6.7122     2.7541 C.3     
  24 C24            2.3527    -8.2336     2.9250 C.3     
  25 O25            1.0257    -8.6797     3.2170 O.3     
  26 C26            0.0694    -8.3404     2.2092 C.3     
  27 C27            3.3940     0.7535    -2.7177 C.3     
  28 C28            5.8347     0.9532    -3.2134 C.3     
  29 C29            4.7256    -1.2846    -3.2797 C.3     
  30 H30           -0.7697     1.6542     0.5004 H       
  31 H31           -0.6874    -0.7604     0.8927 H       
  32 H32            3.5111    -2.4578     0.6680 H       
  33 H33            3.5012    -4.8857     1.0627 H       
  34 H34           -0.7034    -4.7428     1.8356 H       
  35 H35           -0.6926    -2.3141     1.4457 H       
  36 H36            6.2403     4.0022     0.6093 H       
  37 H37            3.7173     3.5754     1.3417 H       
  38 H38            6.0720    -0.5564    -0.9898 H       
  39 H39            4.3418    -0.8037    -0.6528 H       
  40 H40           -0.2911    -6.3511     2.9570 H       
  41 H41           -0.6442    -6.5607     1.2243 H       
  42 H42            3.3459    -6.3740     2.4752 H       
  43 H43            2.0522    -6.2415     3.6917 H       
  44 H44            2.6999    -8.7022     2.0041 H       
  45 H45            3.0169    -8.5055     3.7454 H       
  46 H46           -0.9178    -8.6896     2.5118 H       
  47 H47            0.3502    -8.8121     1.2675 H       
  48 H48            3.4418     1.7556    -2.2916 H       
  49 H49            3.1290     0.8195    -3.7729 H       
  50 H50            2.6402     0.1696    -2.1895 H       
  51 H51            6.8059     0.4689    -3.1124 H       
  52 H52            5.6084     1.0968    -4.2699 H       
  53 H53            5.8573     1.9208    -2.7119 H       
  54 H54            3.9580    -1.9113    -2.8256 H       
  55 H55            4.4992    -1.1411    -4.3363 H       
  56 H56            5.6968    -1.7689    -3.1788 H       
@<TRIPOS>BOND
   1    1    2 2
   2    1    6 1
   3    1   30 1
   4    2    3 1
   5    2   31 1
   6    3    4 1
   7    3    7 1
   8    4    5 2
   9    5    6 1
  10    5   13 1
  11    6   20 2
  12    7    8 ar
  13    7   12 ar
  14    8    9 ar
  15    8   32 1
  16    9   10 ar
  17    9   33 1
  18   10   11 ar
  19   10   21 1
  20   11   12 ar
  21   11   34 1
  22   12   35 1
  23   13   14 1
  24   13   17 2
  25   14   15 1
  26   14   18 1
  27   15   16 2
  28   16   17 1
  29   16   36 1
  30   17   37 1
  31   18   19 1
  32   18   38 1
  33   18   39 1
  34   19   28 1
  35   19   29 1
  36   19   27 1
  37   21   22 1
  38   21   23 1
  39   22   26 1
  40   22   40 1
  41   22   41 1
  42   23   24 1
  43   23   42 1
  44   23   43 1
  45   24   25 1
  46   24   44 1
  47   24   45 1
  48   25   26 1
  49   26   46 1
  50   26   47 1
  51   27   48 1
  52   27   49 1
  53   27   50 1
  54   28   51 1
  55   28   52 1
  56   28   53 1
  57   29   54 1
  58   29   55 1
  59   29   56 1

#	End of record

