#	Name: ASD04910536
#	Creating user name:	WinNT
#	Creation time:	15. 06. 2019 20:56

#	Modifying user name:	WinNT
#	Modification time:	15. 06. 2019 20:56

#	Program:	/corina/corina34_cracker 3.40 0067  02.08.2006

@<TRIPOS>MOLECULE
ASD04910536
  59   61    0    0    0
SMALL
NO_CHARGES


@<TRIPOS>ATOM
   1 C1            -0.0184     1.5028     0.0103 C.2     
   2 C2             0.0021    -0.0041     0.0020 C.3     
   3 C3             1.4513    -0.4944    -0.0145 C.3     
   4 O4             1.0197     2.1211     0.0037 O.2     
   5 O5            -1.1898     2.1580     0.0194 O.3     
   6 C6             2.6473    -2.6171    -0.0373 C.2     
   7 C7             2.6674    -4.0954    -0.0454 C.ar    
   8 C8             3.8837    -4.7799    -0.0607 C.ar    
   9 C9             3.8954    -6.1594    -0.0677 C.ar    
  10 C10            2.7049    -6.8644    -0.0601 C.ar    
  11 C11            1.4958    -6.1920    -0.0450 C.ar    
  12 C12            1.4701    -4.8127    -0.0320 C.ar    
  13 O13            3.6916    -1.9951    -0.0439 O.2     
  14 N14            1.4712    -1.9592    -0.0225 N.am    
  15 C15            2.7254    -8.3712    -0.0689 C.3     
  16 C16            2.4957    -8.8926     1.3511 C.3     
  17 C17            2.6401   -10.4157     1.3646 C.3     
  18 N18            1.6654    -8.8688    -0.9493 N.pl3   
  19 C19            0.7760   -10.6028    -2.3726 C.ar    
  20 C20            1.7811   -10.1312    -1.5380 C.ar    
  21 C21            2.9014   -10.9135    -1.2885 C.ar    
  22 C22            3.0166   -12.1622    -1.8709 C.ar    
  23 C23            2.0111   -12.6346    -2.7062 C.ar    
  24 C24            0.8902   -11.8513    -2.9556 C.ar    
  25 N25            2.1278   -13.9027    -3.2985 N.pl3   
  26 N26            3.1966   -14.7934    -3.1356 N.2     
  27 C27            2.9460   -15.8670    -3.8420 C.2     
  28 C28            1.7116   -15.6950    -4.4765 C.2     
  29 C29            1.2261   -14.4820    -4.1218 C.2     
  30 C30            1.0379   -16.6874    -5.3888 C.3     
  31 F31            1.8398   -17.8271    -5.5116 F       
  32 F32           -0.2034   -17.0461    -4.8523 F       
  33 F33            0.8517   -16.1102    -6.6495 F       
  34 F34            4.1065   -12.9228    -1.6285 F       
  35 F35           -0.0873   -12.3097    -3.7677 F       
  36 C36            2.4104   -10.9372     2.7846 C.3     
  37 H37           -0.4983    -0.3791     0.8948 H       
  38 H38           -0.5153    -0.3696    -0.8850 H       
  39 H39            1.9516    -0.1193    -0.9073 H       
  40 H40            1.9686    -0.1289     0.8726 H       
  41 H41           -1.1523     3.1243     0.0245 H       
  42 H42            4.8137    -4.2307    -0.0674 H       
  43 H43            4.8359    -6.6902    -0.0796 H       
  44 H44            0.5700    -6.7482    -0.0391 H       
  45 H45            0.5257    -4.2891    -0.0157 H       
  46 H46            0.6378    -2.4556    -0.0172 H       
  47 H47            3.6924    -8.7193    -0.4318 H       
  48 H48            3.2317    -8.4519     2.0234 H       
  49 H49            1.4932    -8.6197     1.6806 H       
  50 H50            1.9040   -10.8565     0.6922 H       
  51 H51            3.6426   -10.6886     1.0351 H       
  52 H52            0.8833    -8.3222    -1.1236 H       
  53 H53           -0.0969    -9.9960    -2.5627 H       
  54 H54            3.6828   -10.5462    -0.6397 H       
  55 H55            3.5828   -16.7357    -3.9211 H       
  56 H56            0.2879   -14.0531    -4.4416 H       
  57 H57            3.1464   -10.4964     3.4570 H       
  58 H58            1.4079   -10.6643     3.1141 H       
  59 H59            2.5132   -12.0223     2.7942 H       
@<TRIPOS>BOND
   1    1    2 1
   2    1    4 2
   3    1    5 1
   4    2    3 1
   5    2   37 1
   6    2   38 1
   7    3   14 1
   8    3   39 1
   9    3   40 1
  10    5   41 1
  11    6    7 1
  12    6   13 2
  13    6   14 am
  14    7    8 ar
  15    7   12 ar
  16    8    9 ar
  17    8   42 1
  18    9   10 ar
  19    9   43 1
  20   10   11 ar
  21   10   15 1
  22   11   12 ar
  23   11   44 1
  24   12   45 1
  25   14   46 1
  26   15   16 1
  27   15   18 1
  28   15   47 1
  29   16   17 1
  30   16   48 1
  31   16   49 1
  32   17   36 1
  33   17   50 1
  34   17   51 1
  35   18   20 1
  36   18   52 1
  37   19   20 ar
  38   19   24 ar
  39   19   53 1
  40   20   21 ar
  41   21   22 ar
  42   21   54 1
  43   22   23 ar
  44   22   34 1
  45   23   24 ar
  46   23   25 1
  47   24   35 1
  48   25   26 1
  49   25   29 1
  50   26   27 2
  51   27   28 1
  52   27   55 1
  53   28   29 2
  54   28   30 1
  55   29   56 1
  56   30   31 1
  57   30   32 1
  58   30   33 1
  59   36   57 1
  60   36   58 1
  61   36   59 1

#	End of record

