#	Name: ASD08150217
#	Creating user name:	WinNT
#	Creation time:	15. 06. 2019 21:15

#	Modifying user name:	WinNT
#	Modification time:	15. 06. 2019 21:15

#	Program:	/corina/corina34_cracker 3.40 0067  02.08.2006

@<TRIPOS>MOLECULE
ASD08150217
  49   53    0    0    0
SMALL
NO_CHARGES


@<TRIPOS>ATOM
   1 C1            -0.0184     1.5028     0.0103 C.2     
   2 C2             0.0021    -0.0041     0.0020 C.3     
   3 O3             1.0236     2.1234     0.0037 O.2     
   4 N4            -1.1946     2.1607     0.0195 N.am    
   5 S5             1.7165    -0.5841    -0.0175 S.3     
   6 N6             3.8827    -3.0816    -0.0515 N.2     
   7 C7             4.4385    -4.2583    -0.0631 C.2     
   8 N8             3.4789    -5.2265    -0.0598 N.pl3   
   9 C9             2.2598    -4.5972    -0.0451 C.ar    
  10 N10            0.9942    -5.0030    -0.0355 N.ar    
  11 C11            0.0092    -4.1295    -0.0212 C.ar    
  12 N12            0.2179    -2.8259    -0.0152 N.ar    
  13 C13            1.4502    -2.3258    -0.0243 C.ar    
  14 C14            2.5353    -3.2195    -0.0399 C.ar    
  15 C15           -1.2145     3.6256     0.0275 C.3     
  16 N16           -3.5920     3.2235     0.0366 N.2     
  17 C17           -2.6419     4.1085     0.0369 C.2     
  18 N18           -2.8699     5.4498     0.0457 N.am    
  19 C19           -4.1338     5.9335     0.0548 C.2     
  20 C20           -5.2316     4.9579     0.0542 C.ar    
  21 C21           -6.5705     5.3532     0.0636 C.ar    
  22 C22           -7.5621     4.3921     0.0630 C.ar    
  23 C23           -7.2366     3.0432     0.0537 C.ar    
  24 C24           -5.9216     2.6336     0.0443 C.ar    
  25 C25           -4.8997     3.5845     0.0443 C.ar    
  26 O26           -4.3524     7.1311     0.0636 O.2     
  27 F27           -6.8933     6.6650     0.0737 F       
  28 C28           -1.7866     6.3381     0.0458 C.ar    
  29 C29           -1.2424     6.7728     1.2487 C.ar    
  30 C30           -0.1738     7.6491     1.2448 C.ar    
  31 C31            0.3532     8.0934     0.0458 C.ar    
  32 C32           -0.1863     7.6625    -1.1520 C.ar    
  33 C33           -1.2506     6.7817    -1.1553 C.ar    
  34 Cl34          -1.9045     6.2161     2.7538 Cl      
  35 H35           -0.4983    -0.3791     0.8948 H       
  36 H36           -0.5153    -0.3696    -0.8850 H       
  37 H37           -2.0280     1.6644     0.0207 H       
  38 H38            5.5030    -4.4408    -0.0739 H       
  39 H39            3.6301    -6.1846    -0.0666 H       
  40 H40           -1.0078    -4.4930    -0.0140 H       
  41 H41           -0.7014     3.9910     0.9171 H       
  42 H42           -0.7098     4.0007    -0.8628 H       
  43 H43           -8.5994     4.6928     0.0703 H       
  44 H44           -8.0248     2.3048     0.0541 H       
  45 H45           -5.6820     1.5805     0.0367 H       
  46 H46            0.2498     7.9875     2.1788 H       
  47 H47            1.1879     8.7788     0.0452 H       
  48 H48            0.2278     8.0115    -2.0864 H       
  49 H49           -1.6681     6.4420    -2.0916 H       
@<TRIPOS>BOND
   1    1    2 1
   2    1    3 2
   3    1    4 am
   4    2    5 1
   5    2   35 1
   6    2   36 1
   7    4   15 1
   8    4   37 1
   9    5   13 1
  10    6    7 2
  11    6   14 1
  12    7    8 1
  13    7   38 1
  14    8    9 1
  15    8   39 1
  16    9   10 ar
  17    9   14 ar
  18   10   11 ar
  19   11   12 ar
  20   11   40 1
  21   12   13 ar
  22   13   14 ar
  23   15   17 1
  24   15   41 1
  25   15   42 1
  26   16   17 2
  27   16   25 1
  28   17   18 1
  29   18   19 am
  30   18   28 1
  31   19   20 1
  32   19   26 2
  33   20   21 ar
  34   20   25 ar
  35   21   22 ar
  36   21   27 1
  37   22   23 ar
  38   22   43 1
  39   23   24 ar
  40   23   44 1
  41   24   25 ar
  42   24   45 1
  43   28   29 ar
  44   28   33 ar
  45   29   30 ar
  46   29   34 1
  47   30   31 ar
  48   30   46 1
  49   31   32 ar
  50   31   47 1
  51   32   33 ar
  52   32   48 1
  53   33   49 1

#	End of record

