#	Name: ASD03731077
#	Creating user name:	WinNT
#	Creation time:	15. 06. 2019 20:45

#	Modifying user name:	WinNT
#	Modification time:	15. 06. 2019 20:45

#	Program:	/corina/corina34_cracker 3.40 0067  02.08.2006

@<TRIPOS>MOLECULE
ASD03731077
  66   71    0    0    0
SMALL
NO_CHARGES


@<TRIPOS>ATOM
   1 O1            -0.0174     1.4356     0.0099 O.3     
   2 C2             0.0021    -0.0041     0.0020 C.3     
   3 O3             1.2461    -0.3262    -0.6470 O.3     
   4 C4             2.0710     0.7345    -0.4034 C.ar    
   5 C5             1.2935     1.8178    -0.0005 C.ar    
   6 C6             3.4452     0.8649    -0.4936 C.ar    
   7 C7             4.0602     2.0747    -0.1856 C.ar    
   8 C8             3.2723     3.1522     0.2076 C.ar    
   9 C9             1.9024     3.0234     0.3045 C.ar    
  10 O10            5.3831     2.4065    -0.1922 O.3     
  11 C11            4.2098     4.3069     0.4393 C.3     
  12 C12            5.5129     3.8410    -0.2242 C.3     
  13 N13            3.6127     6.4762     0.8417 N.am    
  14 C14            3.6993     5.5834    -0.1645 C.2     
  15 C15            4.3992     4.6044     1.8972 C.ar    
  16 C16            4.8378     3.8614     2.9705 C.ar    
  17 C17            4.9039     4.4334     4.2285 C.ar    
  18 C18            4.5284     5.7527     4.4051 C.ar    
  19 C19            4.0877     6.5009     3.3334 C.ar    
  20 C20            4.0181     5.9334     2.0634 C.ar    
  21 O21            3.4201     5.7739    -1.3293 O.2     
  22 C22            3.1483     7.8554     0.6736 C.3     
  23 N23           -0.9770     8.6420    -0.1217 N.3     
  24 C24           -0.3601     9.4129     0.9653 C.3     
  25 C25            1.1630     9.3678     0.8238 C.3     
  26 C26            1.6327     7.9114     0.8755 C.3     
  27 C27            0.9387     7.1198    -0.2364 C.3     
  28 C28           -0.5779     7.2300    -0.0641 C.3     
  29 C29           -4.5664     8.1432    -1.2409 C.3     
  30 C30           -3.0392     8.0650    -1.3150 C.3     
  31 C31           -2.4396     8.7770    -0.0985 C.3     
  32 C32           -2.9932     8.1368     1.1782 C.3     
  33 C33           -4.5221     8.2123     1.1560 C.3     
  34 O34           -5.0130     7.5583    -0.0159 O.3     
  35 H35           -0.0105    -0.3928     1.0203 H       
  36 H36           -0.8401    -0.3953    -0.5687 H       
  37 H37            4.0448     0.0222    -0.8046 H       
  38 H38            1.3032     3.8652     0.6186 H       
  39 H39            6.3787     4.1643     0.3536 H       
  40 H40            5.5749     4.2013    -1.2510 H       
  41 H41            5.1300     2.8312     2.8302 H       
  42 H42            5.2475     3.8510     5.0706 H       
  43 H43            4.5803     6.1993     5.3870 H       
  44 H44            3.7954     7.5303     3.4796 H       
  45 H45            3.6366     8.4954     1.4085 H       
  46 H46            3.3941     8.2017    -0.3303 H       
  47 H47           -0.6991    10.4476     0.9146 H       
  48 H48           -0.6486     8.9830     1.9246 H       
  49 H49            1.4532     9.8101    -0.1292 H       
  50 H50            1.6210     9.9271     1.6396 H       
  51 H51            1.3781     7.4807     1.8439 H       
  52 H52            1.2254     7.5267    -1.2061 H       
  53 H53            1.2365     6.0728    -0.1780 H       
  54 H54           -0.8654     6.8103     0.8999 H       
  55 H55           -1.0751     6.6792    -0.8626 H       
  56 H56           -4.8793     9.1866    -1.2809 H       
  57 H57           -4.9993     7.6012    -2.0816 H       
  58 H58           -2.7276     7.0205    -1.3159 H       
  59 H59           -2.6936     8.5499    -2.2279 H       
  60 H60           -2.7088     9.8329    -0.1248 H       
  61 H61           -2.6807     7.0937     1.2277 H       
  62 H62           -2.6146     8.6731     2.0483 H       
  63 H63           -4.9232     7.7200     2.0420 H       
  64 H64           -4.8344     9.2565     1.1474 H       
  65 Cl65          11.3787    15.4476    10.3870 Cl      
  66 H66           11.3787    16.8176    10.3870 H       
@<TRIPOS>BOND
   1    1    2 1
   2    1    5 1
   3    2    3 1
   4    2   35 1
   5    2   36 1
   6    3    4 1
   7    4    5 ar
   8    4    6 ar
   9    5    9 ar
  10    6    7 ar
  11    6   37 1
  12    7    8 ar
  13    7   10 1
  14    8    9 ar
  15    8   11 1
  16    9   38 1
  17   10   12 1
  18   11   12 1
  19   11   14 1
  20   11   15 1
  21   12   39 1
  22   12   40 1
  23   13   14 am
  24   13   20 1
  25   13   22 1
  26   14   21 2
  27   15   16 ar
  28   15   20 ar
  29   16   17 ar
  30   16   41 1
  31   17   18 ar
  32   17   42 1
  33   18   19 ar
  34   18   43 1
  35   19   20 ar
  36   19   44 1
  37   22   26 1
  38   22   45 1
  39   22   46 1
  40   23   24 1
  41   23   28 1
  42   23   31 1
  43   24   25 1
  44   24   47 1
  45   24   48 1
  46   25   26 1
  47   25   49 1
  48   25   50 1
  49   26   27 1
  50   26   51 1
  51   27   28 1
  52   27   52 1
  53   27   53 1
  54   28   54 1
  55   28   55 1
  56   29   30 1
  57   29   34 1
  58   29   56 1
  59   29   57 1
  60   30   31 1
  61   30   58 1
  62   30   59 1
  63   31   32 1
  64   31   60 1
  65   32   33 1
  66   32   61 1
  67   32   62 1
  68   33   34 1
  69   33   63 1
  70   33   64 1
  71   65   66 1

#	End of record

