#	Name: ASD01940156
#	Creating user name:	WinNT
#	Creation time:	15. 06. 2019 20:11

#	Modifying user name:	WinNT
#	Modification time:	15. 06. 2019 20:11

#	Program:	/corina/corina34_cracker 3.40 0067  02.08.2006

@<TRIPOS>MOLECULE
ASD01940156
  43   45    0    0    0
SMALL
NO_CHARGES


@<TRIPOS>ATOM
   1 F1             1.9014     1.6021     2.2842 F       
   2 C2             1.0624     2.1527     1.3798 C.ar    
   3 C3             1.3870     2.1347     0.0298 C.ar    
   4 C4             0.5182     2.7041    -0.8996 C.ar    
   5 C5            -0.6661     3.2858    -0.4722 C.ar    
   6 C6            -0.9841     3.3008     0.8734 C.ar    
   7 C7            -0.1256     2.7308     1.7979 C.ar    
   8 N8             2.5853     1.5459    -0.3971 N.pl3   
   9 N9             0.8408     2.6892    -2.2632 N.am    
  10 C10            2.6323     0.1765    -0.6707 C.ar    
  11 C11            1.4773    -0.5900    -0.5871 C.ar    
  12 C12            1.5272    -1.9437    -0.8582 C.ar    
  13 C13            2.7252    -2.5363    -1.2120 C.ar    
  14 C14            3.8782    -1.7767    -1.2960 C.ar    
  15 C15            3.8346    -0.4211    -1.0328 C.ar    
  16 Cl16           5.2819     0.5318    -1.1383 Cl      
  17 F17           -0.4439     2.7432     3.1108 F       
  18 S18            0.4237     3.9698    -3.2268 S.o2    
  19 O19            0.9892     3.6552    -4.4919 O.2     
  20 O20           -0.9827     4.0887    -3.0622 O.2     
  21 C21           -0.3314     7.0846    -3.0306 C.3     
  22 C22           -0.5282     8.5949    -3.1764 C.3     
  23 C23           -1.0732     7.6457    -4.2455 C.3     
  24 C24            2.7751    -4.0134    -1.5064 C.3     
  25 F25            2.5362    -4.2258    -2.8684 F       
  26 F26            4.0379    -4.5133    -1.1708 F       
  27 F27            1.7975    -4.6723    -0.7532 F       
  28 C28            1.2737     5.3902    -2.4850 C.3     
  29 O29            0.9838     6.5672    -3.2418 O.3     
  30 H30           -1.3402     3.7278    -1.1909 H       
  31 H31           -1.9069     3.7544     1.2036 H       
  32 H32            3.3820     2.0892    -0.5026 H       
  33 H33            1.3086     1.9289    -2.6426 H       
  34 H34            0.5410    -0.1283    -0.3102 H       
  35 H35            0.6291    -2.5401    -0.7933 H       
  36 H36            4.8124    -2.2429    -1.5719 H       
  37 H37           -0.9226     6.5709    -2.2726 H       
  38 H38           -1.2492     9.0747    -2.5145 H       
  39 H39            0.3455     9.1938    -3.4333 H       
  40 H40           -0.5581     7.6202    -5.2057 H       
  41 H41           -2.1528     7.5010    -4.2869 H       
  42 H42            0.9303     5.5241    -1.4592 H       
  43 H43            2.3491     5.2122    -2.4878 H       
@<TRIPOS>BOND
   1    1    2 1
   2    2    3 ar
   3    2    7 ar
   4    3    4 ar
   5    3    8 1
   6    4    5 ar
   7    4    9 1
   8    5    6 ar
   9    5   30 1
  10    6    7 ar
  11    6   31 1
  12    7   17 1
  13    8   10 1
  14    8   32 1
  15    9   18 am
  16    9   33 1
  17   10   11 ar
  18   10   15 ar
  19   11   12 ar
  20   11   34 1
  21   12   13 ar
  22   12   35 1
  23   13   14 ar
  24   13   24 1
  25   14   15 ar
  26   14   36 1
  27   15   16 1
  28   18   19 2
  29   18   20 2
  30   18   28 1
  31   21   22 1
  32   21   29 1
  33   21   23 1
  34   21   37 1
  35   22   23 1
  36   22   38 1
  37   22   39 1
  38   23   40 1
  39   23   41 1
  40   24   25 1
  41   24   26 1
  42   24   27 1
  43   28   29 1
  44   28   42 1
  45   28   43 1

#	End of record

