#	Name: ASD01230731
#	Creating user name:	WinNT
#	Creation time:	15. 06. 2019 19:14

#	Modifying user name:	WinNT
#	Modification time:	15. 06. 2019 19:14

#	Program:	/corina/corina34_cracker 3.40 0067  02.08.2006

@<TRIPOS>MOLECULE
ASD01230731
  61   64    0    0    0
SMALL
NO_CHARGES


@<TRIPOS>ATOM
   1 S1            -0.5124     1.3580    -0.1574 S.o2    
   2 N2            -0.2488    -0.2634    -0.0434 N.am    
   3 C3             0.8966    -0.8203    -0.1231 C.2     
   4 N4             2.0654    -0.1471    -0.3645 N.pl3   
   5 C5             2.0771     1.1658    -1.0026 C.3     
   6 C6             1.1343     2.1084    -0.2529 C.3     
   7 C7             1.0050    -2.3256     0.0578 C.3     
   8 N8             2.0347    -2.5885     1.0719 N.am    
   9 C9             3.0836    -1.5920     1.3155 C.3     
  10 C10            3.3293    -0.7830     0.0376 C.3     
  11 C11            2.0163    -3.7386     1.7743 C.2     
  12 O12            1.0996    -4.5232     1.6313 O.2     
  13 O13            3.0137    -4.0182     2.6344 O.3     
  14 C14           -0.3383    -2.8880     0.5270 C.3     
  15 C15            2.1228    -4.1474    -3.6469 C.ar    
  16 C16            2.5040    -4.7301    -2.4373 C.ar    
  17 C17            2.1392    -4.1367    -1.2432 C.ar    
  18 C18            1.3993    -2.9683    -1.2470 C.ar    
  19 C19            1.0195    -2.3875    -2.4434 C.ar    
  20 C20            1.3772    -2.9708    -3.6423 C.ar    
  21 C21            2.5157    -4.7751    -4.9326 C.ar    
  22 C22            1.5595    -5.0044    -5.9199 C.ar    
  23 C23            1.9305    -5.5888    -7.1139 C.ar    
  24 C24            3.2488    -5.9466    -7.3315 C.ar    
  25 C25            4.2021    -5.7217    -6.3548 C.ar    
  26 C26            3.8434    -5.1324    -5.1594 C.ar    
  27 F27            3.2268    -5.8715    -2.4334 F       
  28 O28           -1.1998     1.5120    -1.3915 O.2     
  29 O29           -1.1401     1.6948     1.0721 O.2     
  30 C30            2.9283    -5.2748     3.3568 C.3     
  31 C31            2.9073    -6.4356     2.3603 C.3     
  32 C32            4.1409    -5.4163     4.2791 C.3     
  33 C33            1.6468    -5.2967     4.1923 C.3     
  34 H34            3.0887     1.5712    -0.9807 H       
  35 H35            1.7473     1.0696    -2.0370 H       
  36 H36            1.0710     3.0581    -0.7841 H       
  37 H37            1.5154     2.2789     0.7540 H       
  38 H38            2.7686    -0.9213     2.1149 H       
  39 H39            4.0040    -2.0976     1.6077 H       
  40 H40            3.6734    -1.4469    -0.7554 H       
  41 H41            4.0802    -0.0164     0.2284 H       
  42 H42           -1.1361    -2.4988    -0.1055 H       
  43 H43           -0.3200    -3.9758     0.4605 H       
  44 H44           -0.5159    -2.5901     1.5604 H       
  45 H45            2.4328    -4.5860    -0.3060 H       
  46 H46            0.4414    -1.4753    -2.4396 H       
  47 H47            1.0798    -2.5154    -4.5753 H       
  48 H48            0.5298    -4.7258    -5.7509 H       
  49 H49            1.1902    -5.7673    -7.8797 H       
  50 H50            3.5348    -6.4035    -8.2673 H       
  51 H51            5.2300    -6.0034    -6.5298 H       
  52 H52            4.5894    -4.9528    -4.3993 H       
  53 H53            3.8203    -6.4200     1.7651 H       
  54 H54            2.8432    -7.3789     2.9026 H       
  55 H55            2.0435    -6.3348     1.7033 H       
  56 H56            4.1558    -4.5893     4.9890 H       
  57 H57            4.0768    -6.3596     4.8214 H       
  58 H58            5.0539    -5.4007     3.6839 H       
  59 H59            0.7829    -5.1959     3.5353 H       
  60 H60            1.5827    -6.2400     4.7346 H       
  61 H61            1.6617    -4.4697     4.9023 H       
@<TRIPOS>BOND
   1    1    2 am
   2    1    6 1
   3    1   28 2
   4    1   29 2
   5    2    3 2
   6    3    4 1
   7    3    7 1
   8    4    5 1
   9    4   10 1
  10    5    6 1
  11    5   34 1
  12    5   35 1
  13    6   36 1
  14    6   37 1
  15    7    8 1
  16    7   14 1
  17    7   18 1
  18    8    9 1
  19    8   11 am
  20    9   10 1
  21    9   38 1
  22    9   39 1
  23   10   40 1
  24   10   41 1
  25   11   12 2
  26   11   13 1
  27   13   30 1
  28   14   42 1
  29   14   43 1
  30   14   44 1
  31   15   16 ar
  32   15   20 ar
  33   15   21 1
  34   16   17 ar
  35   16   27 1
  36   17   18 ar
  37   17   45 1
  38   18   19 ar
  39   19   20 ar
  40   19   46 1
  41   20   47 1
  42   21   22 ar
  43   21   26 ar
  44   22   23 ar
  45   22   48 1
  46   23   24 ar
  47   23   49 1
  48   24   25 ar
  49   24   50 1
  50   25   26 ar
  51   25   51 1
  52   26   52 1
  53   30   31 1
  54   30   33 1
  55   30   32 1
  56   31   53 1
  57   31   54 1
  58   31   55 1
  59   32   56 1
  60   32   57 1
  61   32   58 1
  62   33   59 1
  63   33   60 1
  64   33   61 1

#	End of record

