#	Name: ASD01440001
#	Creating user name:	WinNT
#	Creation time:	15. 06. 2019 19:20

#	Modifying user name:	WinNT
#	Modification time:	15. 06. 2019 19:20

#	Program:	/corina/corina34_cracker 3.40 0067  02.08.2006

@<TRIPOS>MOLECULE
ASD01440001
  76   79    0    0    0
SMALL
NO_CHARGES


@<TRIPOS>ATOM
   1 O1            -3.8070     1.8958     0.2602 O.3     
   2 C2            -4.3839     0.5910     0.3436 C.3     
   3 C3            -4.5280     0.0160    -1.0419 C.ar    
   4 C4            -5.6591    -0.7046    -1.3770 C.ar    
   5 C5            -5.7913    -1.2321    -2.6478 C.ar    
   6 C6            -4.7926    -1.0386    -3.5838 C.ar    
   7 C7            -3.6619    -0.3172    -3.2490 C.ar    
   8 C8            -3.5317     0.2140    -1.9795 C.ar    
   9 C9            -4.9362    -1.6145    -4.9690 C.3     
  10 C10           -6.1851    -1.0341    -5.6356 C.3     
  11 C11           -3.7021    -1.2580    -5.8001 C.3     
  12 C12           -5.0673    -3.1361    -4.8776 C.3     
  13 C13           -3.4778    -0.3147     1.1800 C.3     
  14 C14           -3.4313     0.2001     2.6200 C.3     
  15 C15           -2.5252    -0.7057     3.4564 C.3     
  16 N16           -2.4806    -0.2114     4.8391 N.3     
  17 C17           -1.8182    -1.1792     5.7228 C.3     
  18 C18           -1.9185    -0.7000     7.1727 C.3     
  19 C19           -1.2528     0.6732     7.2985 C.3     
  20 C20           -1.9294     1.6501     6.3329 C.3     
  21 C21           -1.8288     1.1027     4.9073 C.3     
  22 C22           -1.4033     1.1849     8.7325 C.3     
  23 C23           -0.7567     0.2112     9.6838 C.ar    
  24 C24           -1.4520    -0.2390    10.7905 C.ar    
  25 C25           -0.8589    -1.1321    11.6631 C.ar    
  26 C26            0.4294    -1.5754    11.4288 C.ar    
  27 C27            1.1243    -1.1258    10.3216 C.ar    
  28 C28            0.5296    -0.2361     9.4466 C.ar    
  29 C29           -0.7348     2.5296     8.8588 C.ar    
  30 C30           -1.4181     3.5910     9.4223 C.ar    
  31 C31           -0.8050     4.8245     9.5380 C.ar    
  32 C32            0.4916     4.9965     9.0907 C.ar    
  33 C33            1.1753     3.9349     8.5280 C.ar    
  34 C34            0.5636     2.7003     8.4162 C.ar    
  35 O35           -2.7908     1.3110     9.0501 O.3     
  36 H36           -2.9307     1.9130    -0.1484 H       
  37 H37           -5.3652     0.6570     0.8135 H       
  38 H38           -6.4393    -0.8558    -0.6457 H       
  39 H39           -6.6746    -1.7957    -2.9094 H       
  40 H40           -2.8815    -0.1663    -3.9802 H       
  41 H41           -2.6483     0.7776    -1.7179 H       
  42 H42           -6.0916     0.0499    -5.7008 H       
  43 H43           -6.2890    -1.4507    -6.6375 H       
  44 H44           -7.0643    -1.2881    -5.0436 H       
  45 H45           -2.8124    -1.6714    -5.3251 H       
  46 H46           -3.8060    -1.6745    -6.8020 H       
  47 H47           -3.6086    -0.1739    -5.8652 H       
  48 H48           -5.9466    -3.3901    -4.2856 H       
  49 H49           -5.1712    -3.5527    -5.8795 H       
  50 H50           -4.1776    -3.5496    -4.4027 H       
  51 H51           -3.8712    -1.3312     1.1701 H       
  52 H52           -2.4720    -0.3103     0.7599 H       
  53 H53           -3.0379     1.2166     2.6300 H       
  54 H54           -4.4371     0.1956     3.0401 H       
  55 H55           -2.9186    -1.7221     3.4465 H       
  56 H56           -1.5194    -0.7012     3.0363 H       
  57 H57           -2.3038    -2.1503     5.6268 H       
  58 H58           -0.7688    -1.2688     5.4417 H       
  59 H59           -2.9675    -0.6234     7.4589 H       
  60 H60           -1.4132    -1.4107     7.8267 H       
  61 H61           -0.1949     0.5892     7.0499 H       
  62 H62           -2.9786     1.7636     6.6059 H       
  63 H63           -1.4319     2.6184     6.3869 H       
  64 H64           -0.7794     1.0025     4.6301 H       
  65 H65           -2.3221     1.7890     4.2191 H       
  66 H66           -2.4585     0.1073    10.9736 H       
  67 H67           -1.4018    -1.4834    12.5281 H       
  68 H68            0.8930    -2.2726    12.1109 H       
  69 H69            2.1309    -1.4718    10.1387 H       
  70 H70            1.0725     0.1152     8.5816 H       
  71 H71           -2.4312     3.4566     9.7717 H       
  72 H72           -1.3391     5.6539     9.9776 H       
  73 H73            0.9704     5.9604     9.1805 H       
  74 H74            2.1881     4.0694     8.1783 H       
  75 H75            1.0977     1.8709     7.9766 H       
  76 H76           -3.2851     0.4821     8.9896 H       
@<TRIPOS>BOND
   1    1    2 1
   2    1   36 1
   3    2    3 1
   4    2   13 1
   5    2   37 1
   6    3    4 ar
   7    3    8 ar
   8    4    5 ar
   9    4   38 1
  10    5    6 ar
  11    5   39 1
  12    6    7 ar
  13    6    9 1
  14    7    8 ar
  15    7   40 1
  16    8   41 1
  17    9   10 1
  18    9   11 1
  19    9   12 1
  20   10   42 1
  21   10   43 1
  22   10   44 1
  23   11   45 1
  24   11   46 1
  25   11   47 1
  26   12   48 1
  27   12   49 1
  28   12   50 1
  29   13   14 1
  30   13   51 1
  31   13   52 1
  32   14   15 1
  33   14   53 1
  34   14   54 1
  35   15   16 1
  36   15   55 1
  37   15   56 1
  38   16   17 1
  39   16   21 1
  40   17   18 1
  41   17   57 1
  42   17   58 1
  43   18   19 1
  44   18   59 1
  45   18   60 1
  46   19   20 1
  47   19   22 1
  48   19   61 1
  49   20   21 1
  50   20   62 1
  51   20   63 1
  52   21   64 1
  53   21   65 1
  54   22   23 1
  55   22   29 1
  56   22   35 1
  57   23   24 ar
  58   23   28 ar
  59   24   25 ar
  60   24   66 1
  61   25   26 ar
  62   25   67 1
  63   26   27 ar
  64   26   68 1
  65   27   28 ar
  66   27   69 1
  67   28   70 1
  68   29   30 ar
  69   29   34 ar
  70   30   31 ar
  71   30   71 1
  72   31   32 ar
  73   31   72 1
  74   32   33 ar
  75   32   73 1
  76   33   34 ar
  77   33   74 1
  78   34   75 1
  79   35   76 1

#	End of record

