#	Name: ASD08150892
#	Creating user name:	WinNT
#	Creation time:	15. 06. 2019 21:16

#	Modifying user name:	WinNT
#	Modification time:	15. 06. 2019 21:16

#	Program:	/corina/corina34_cracker 3.40 0067  02.08.2006

@<TRIPOS>MOLECULE
ASD08150892
  49   53    0    0    0
SMALL
NO_CHARGES


@<TRIPOS>ATOM
   1 N1            -0.2722     1.4084     0.0439 N.2     
   2 C2            -0.6752     0.2730     0.5345 C.2     
   3 N3            -0.3469     0.1940     1.8564 N.pl3   
   4 C4             0.2979     1.3581     2.1902 C.ar    
   5 N5             0.8372     1.8444     3.3035 N.ar    
   6 C6             1.4062     3.0390     3.3098 C.ar    
   7 N7             1.4667     3.8003     2.2248 N.ar    
   8 C8             0.9529     3.3919     1.0699 C.ar    
   9 C9             0.3388     2.1288     1.0165 C.ar    
  10 N10            1.9572     3.5111     4.4898 N.pl3   
  11 N11            1.0204     4.1930    -0.0562 N.pl3   
  12 C12            1.6637     5.5072     0.0172 C.3     
  13 C13            2.1522     5.9143    -1.3744 C.3     
  14 C14            1.1263     7.6975     1.0955 C.ar    
  15 C15            0.6717     6.5247     0.5190 C.ar    
  16 C16           -0.6906     6.2754     0.3974 C.ar    
  17 C17           -1.6135     7.1744     0.8398 C.ar    
  18 C18           -1.1958     8.3786     1.4317 C.ar    
  19 C19           -2.1280     9.3230     1.8958 C.ar    
  20 C20           -1.6892    10.4795     2.4638 C.ar    
  21 C21           -0.3271    10.7429     2.5930 C.ar    
  22 C22            0.6035     9.8505     2.1540 C.ar    
  23 C23            0.1883     8.6480     1.5638 C.ar    
  24 C24            2.5797     7.9527     1.2267 C.ar    
  25 C25            3.1717     9.0035     0.5267 C.ar    
  26 C26            4.5278     9.2367     0.6538 C.ar    
  27 C27            5.2978     8.4279     1.4745 C.ar    
  28 C28            4.7143     7.3850     2.1703 C.ar    
  29 C29            3.3597     7.1467     2.0552 C.ar    
  30 F30            5.1038    10.2540    -0.0233 F       
  31 H31           -1.1934    -0.4937    -0.0223 H       
  32 H32           -0.5352    -0.5487     2.4513 H       
  33 H33            1.9218     2.9683     5.2929 H       
  34 H34            2.3784     4.3846     4.5129 H       
  35 H35            0.6418     3.8845    -0.8943 H       
  36 H36            2.5117     5.4589     0.7003 H       
  37 H37            1.3041     5.9626    -2.0574 H       
  38 H38            2.6308     6.8921    -1.3197 H       
  39 H39            2.8696     5.1784    -1.7373 H       
  40 H40           -1.0229     5.3532    -0.0559 H       
  41 H41           -2.6671     6.9616     0.7351 H       
  42 H42           -3.1868     9.1321     1.8017 H       
  43 H43           -2.4073    11.2037     2.8193 H       
  44 H44           -0.0047    11.6680     3.0475 H       
  45 H45            1.6561    10.0678     2.2602 H       
  46 H46            2.5718     9.6334    -0.1134 H       
  47 H47            6.3575     8.6126     1.5709 H       
  48 H48            5.3193     6.7579     2.8084 H       
  49 H49            2.9052     6.3344     2.6029 H       
@<TRIPOS>BOND
   1    1    2 2
   2    1    9 1
   3    2    3 1
   4    2   31 1
   5    3    4 1
   6    3   32 1
   7    4    5 ar
   8    4    9 ar
   9    5    6 ar
  10    6    7 ar
  11    6   10 1
  12    7    8 ar
  13    8    9 ar
  14    8   11 1
  15   10   33 1
  16   10   34 1
  17   11   12 1
  18   11   35 1
  19   12   13 1
  20   12   15 1
  21   12   36 1
  22   13   37 1
  23   13   38 1
  24   13   39 1
  25   14   15 ar
  26   14   23 ar
  27   14   24 1
  28   15   16 ar
  29   16   17 ar
  30   16   40 1
  31   17   18 ar
  32   17   41 1
  33   18   19 ar
  34   18   23 ar
  35   19   20 ar
  36   19   42 1
  37   20   21 ar
  38   20   43 1
  39   21   22 ar
  40   21   44 1
  41   22   23 ar
  42   22   45 1
  43   24   25 ar
  44   24   29 ar
  45   25   26 ar
  46   25   46 1
  47   26   27 ar
  48   26   30 1
  49   27   28 ar
  50   27   47 1
  51   28   29 ar
  52   28   48 1
  53   29   49 1

#	End of record

