#	Name: ASD02560463
#	Creating user name:	WinNT
#	Creation time:	15. 06. 2019 20:25

#	Modifying user name:	WinNT
#	Modification time:	15. 06. 2019 20:25

#	Program:	/corina/corina34_cracker 3.40 0067  02.08.2006

@<TRIPOS>MOLECULE
ASD02560463
  49   52    0    0    0
SMALL
NO_CHARGES


@<TRIPOS>ATOM
   1 C1            -0.0052     1.4162     0.0669 C.2     
   2 C2             0.0086     0.0114     0.0001 C.2     
   3 C3             1.1783    -0.6584    -0.0211 C.2     
   4 N4             2.3678     0.0169     0.0220 N.pl3   
   5 C5             2.3853     1.3912     0.0871 C.2     
   6 C6             1.1678     2.1021     0.1099 C.2     
   7 C7             3.6709    -0.4001     0.0137 C.2     
   8 C8             4.4460     0.7120     0.0731 C.2     
   9 N9             3.6485     1.7853     0.1169 N.2     
  10 C10            5.9528     0.7344     0.0879 C.3     
  11 N11            4.1201    -1.7252    -0.0446 N.3     
  12 C12            2.9997    -2.6669     0.0813 C.3     
  13 C13            6.4630     1.5212    -1.1211 C.3     
  14 C14            2.3759    -2.9559    -1.3066 C.3     
  15 C15            6.4403     1.4036     1.3745 C.3     
  16 C16            7.9701     1.4263     1.3895 C.3     
  17 C17            8.4803     2.2131     0.1805 C.3     
  18 C18            7.9928     1.5439    -1.1061 C.3     
  19 C19            3.5028    -4.0431     0.5639 C.3     
  20 C20            2.6736    -5.1014    -0.1846 C.3     
  21 C21            1.6957    -4.3314    -1.0959 C.3     
  22 C22            1.1669     3.6074     0.1806 C.3     
  23 H23           -0.9448     1.9486     0.0795 H       
  24 H24           -0.9231    -0.5338    -0.0341 H       
  25 H25            1.1767    -1.7371    -0.0722 H       
  26 H26            6.3318    -0.2866     0.0432 H       
  27 H27            4.6405    -1.8936    -0.8925 H       
  28 H28            2.2476    -2.2742     0.7656 H       
  29 H29            6.1157     1.0444    -2.0377 H       
  30 H30            6.0840     2.5422    -1.0765 H       
  31 H31            1.6384    -2.1958    -1.5645 H       
  32 H32            3.1493    -3.0206    -2.0719 H       
  33 H33            6.0613     2.4246     1.4191 H       
  34 H34            6.0768     0.8431     2.2358 H       
  35 H35            8.3174     1.9031     2.3061 H       
  36 H36            8.3491     0.4053     1.3448 H       
  37 H37            8.1013     3.2341     0.2251 H       
  38 H38            9.5701     2.2293     0.1912 H       
  39 H39            8.3718     0.5229    -1.1508 H       
  40 H40            8.3562     2.1044    -1.9674 H       
  41 H41            4.5598    -4.1591     0.3247 H       
  42 H42            3.3499    -4.1406     1.6387 H       
  43 H43            3.3283    -5.7311    -0.7871 H       
  44 H44            2.1184    -5.7125     0.5270 H       
  45 H45            0.7313    -4.2086    -0.6030 H       
  46 H46            1.5754    -4.8474    -2.0485 H       
  47 H47            1.1757     4.0186    -0.8289 H       
  48 H48            0.2722     3.9460     0.7031 H       
  49 H49            2.0521     3.9464     0.7187 H       
@<TRIPOS>BOND
   1    1    2 1
   2    1    6 2
   3    1   23 1
   4    2    3 2
   5    2   24 1
   6    3    4 1
   7    3   25 1
   8    4    5 1
   9    4    7 1
  10    5    6 1
  11    5    9 2
  12    6   22 1
  13    7    8 2
  14    7   11 1
  15    8    9 1
  16    8   10 1
  17   10   15 1
  18   10   13 1
  19   10   26 1
  20   11   12 1
  21   11   27 1
  22   12   19 1
  23   12   14 1
  24   12   28 1
  25   13   18 1
  26   13   29 1
  27   13   30 1
  28   14   21 1
  29   14   31 1
  30   14   32 1
  31   15   16 1
  32   15   33 1
  33   15   34 1
  34   16   17 1
  35   16   35 1
  36   16   36 1
  37   17   18 1
  38   17   37 1
  39   17   38 1
  40   18   39 1
  41   18   40 1
  42   19   20 1
  43   19   41 1
  44   19   42 1
  45   20   21 1
  46   20   43 1
  47   20   44 1
  48   21   45 1
  49   21   46 1
  50   22   47 1
  51   22   48 1
  52   22   49 1

#	End of record

