#	Name: ASD01903149
#	Creating user name:	WinNT
#	Creation time:	15. 06. 2019 19:54

#	Modifying user name:	WinNT
#	Modification time:	15. 06. 2019 19:54

#	Program:	/corina/corina34_cracker 3.40 0067  02.08.2006

@<TRIPOS>MOLECULE
ASD01903149
  47   50    0    0    0
SMALL
NO_CHARGES


@<TRIPOS>ATOM
   1 C1             1.9298    -2.2440     1.4607 C.ar    
   2 C2             0.9253    -1.7240     0.6598 C.ar    
   3 C3             1.1752    -0.5856    -0.0902 C.ar    
   4 N4             2.3496     0.0046    -0.0511 N.ar    
   5 C5             3.3383    -0.4610     0.7026 C.ar    
   6 C6             3.1577    -1.6011     1.4823 C.ar    
   7 C7             4.6444     0.2376     0.7145 C.2     
   8 N8             4.8252     1.3412    -0.0377 N.am    
   9 O9             5.5529    -0.1843     1.4026 O.2     
  10 C10            6.0248     2.0549     0.0451 C.ar    
  11 C11            7.2245     1.3805     0.2327 C.ar    
  12 C12            8.4074     2.0885     0.3141 C.ar    
  13 C13            8.3984     3.4674     0.2092 C.ar    
  14 C14            7.2057     4.1419     0.0229 C.ar    
  15 C15            6.0199     3.4395    -0.0656 C.ar    
  16 S16            9.9100     4.3668     0.3136 S.o2    
  17 O17            9.5662     5.6829     0.7247 O.2     
  18 O18           10.8193     3.5417     1.0289 O.2     
  19 N19           10.5091     4.4989    -1.2245 N.am    
  20 C20           11.4990     3.5357    -1.7255 C.3     
  21 C21           12.5968     4.3258    -2.4500 C.3     
  22 C22           11.9804     5.0356    -3.6553 C.3     
  23 C23           10.7625     5.8181    -3.2402 C.ar    
  24 C24           10.0766     5.5262    -2.0703 C.ar    
  25 C25           10.3185     6.8478    -4.0532 C.ar    
  26 C26            9.2030     7.5823    -3.7012 C.ar    
  27 C27            8.5210     7.2935    -2.5331 C.ar    
  28 C28            8.9531     6.2669    -1.7190 C.ar    
  29 H29            1.7584    -3.1274     2.0578 H       
  30 H30           -0.0426    -2.2014     0.6203 H       
  31 H31            0.3948    -0.1780    -0.7157 H       
  32 H32            3.9630    -1.9789     2.0947 H       
  33 H33            4.1233     1.6403    -0.6366 H       
  34 H34            7.2321     0.3037     0.3151 H       
  35 H35            9.3406     1.5647     0.4603 H       
  36 H36            7.2021     5.2188    -0.0584 H       
  37 H37            5.0887     3.9669    -0.2111 H       
  38 H38           11.9313     2.9830    -0.8914 H       
  39 H39           11.0224     2.8440    -2.4202 H       
  40 H40           13.0243     5.0636    -1.7710 H       
  41 H41           13.3761     3.6426    -2.7876 H       
  42 H42           12.7150     5.7149    -4.0878 H       
  43 H43           11.6954     4.2950    -4.4025 H       
  44 H44           10.8472     7.0776    -4.9665 H       
  45 H45            8.8626     8.3842    -4.3395 H       
  46 H46            7.6484     7.8684    -2.2602 H       
  47 H47            8.4207     6.0407    -0.8070 H       
@<TRIPOS>BOND
   1    1    2 ar
   2    1    6 ar
   3    1   29 1
   4    2    3 ar
   5    2   30 1
   6    3    4 ar
   7    3   31 1
   8    4    5 ar
   9    5    6 ar
  10    5    7 1
  11    6   32 1
  12    7    8 am
  13    7    9 2
  14    8   10 1
  15    8   33 1
  16   10   11 ar
  17   10   15 ar
  18   11   12 ar
  19   11   34 1
  20   12   13 ar
  21   12   35 1
  22   13   14 ar
  23   13   16 1
  24   14   15 ar
  25   14   36 1
  26   15   37 1
  27   16   17 2
  28   16   18 2
  29   16   19 am
  30   19   20 1
  31   19   24 1
  32   20   21 1
  33   20   38 1
  34   20   39 1
  35   21   22 1
  36   21   40 1
  37   21   41 1
  38   22   23 1
  39   22   42 1
  40   22   43 1
  41   23   24 ar
  42   23   25 ar
  43   24   28 ar
  44   25   26 ar
  45   25   44 1
  46   26   27 ar
  47   26   45 1
  48   27   28 ar
  49   27   46 1
  50   28   47 1

#	End of record

