#	Name: ASD01510064
#	Creating user name:	WinNT
#	Creation time:	15. 06. 2019 19:21

#	Modifying user name:	WinNT
#	Modification time:	15. 06. 2019 19:21

#	Program:	/corina/corina34_cracker 3.40 0067  02.08.2006

@<TRIPOS>MOLECULE
ASD01510064
  57   59    0    0    0
SMALL
NO_CHARGES


@<TRIPOS>ATOM
   1 C1             0.0029     1.8042    -0.6495 C.3     
   2 O2             0.1084     0.3927    -0.4528 O.3     
   3 C3            -1.0445    -0.2855    -0.2279 C.ar    
   4 N4            -2.2080     0.3554    -0.1965 N.ar    
   5 C5            -3.3382    -0.2992     0.0225 C.ar    
   6 N6            -3.3597    -1.6087     0.2184 N.ar    
   7 C7            -2.2367    -2.3187     0.2016 C.ar    
   8 C8            -1.0259    -1.6665    -0.0321 C.ar    
   9 S9             0.4908    -2.5628    -0.0650 S.3     
  10 C10            0.6441    -3.0203    -1.7596 C.ar    
  11 C11           -0.3343    -2.6450    -2.6733 C.ar    
  12 C12           -0.2144    -3.0035    -4.0020 C.ar    
  13 C13            0.8772    -3.7358    -4.4275 C.ar    
  14 C14            1.8592    -4.1144    -3.5196 C.ar    
  15 C15            1.7455    -3.7516    -2.1856 C.ar    
  16 N16            2.9633    -4.8558    -3.9515 N.am    
  17 C17            3.4991    -5.7966    -3.1487 C.2     
  18 O18            3.0776    -5.9423    -2.0172 O.2     
  19 C19            4.5933    -6.6469    -3.6410 C.2     
  20 C20            5.1221    -7.5754    -2.8487 C.2     
  21 C21            5.1156    -6.4663    -5.0430 C.3     
  22 O22           -2.2678    -3.6597     0.4032 O.3     
  23 C23           -3.5483    -4.2521     0.6297 C.3     
  24 N24           -4.5317     0.4059     0.0477 N.3     
  25 C25           -5.6677    -0.4906     0.3030 C.3     
  26 C26           -6.9530     0.3345     0.4021 C.3     
  27 N27           -7.1480     1.0846    -0.8465 N.3     
  28 C28           -6.0119     1.9812    -1.1017 C.3     
  29 C29           -4.7266     1.1561    -1.2009 C.3     
  30 C30           -8.4125     1.8318    -0.8197 C.3     
  31 H31            0.9951     2.2226    -0.8186 H       
  32 H32           -0.6282     2.0041    -1.5154 H       
  33 H33           -0.4386     2.2624     0.2355 H       
  34 H34           -1.1891    -2.0729    -2.3439 H       
  35 H35           -0.9759    -2.7111    -4.7098 H       
  36 H36            0.9675    -4.0146    -5.4670 H       
  37 H37            2.5073    -4.0443    -1.4782 H       
  38 H38            3.3436    -4.6931    -4.8289 H       
  39 H39            5.9257    -8.1998    -3.2102 H       
  40 H40            4.7478    -7.7048    -1.8440 H       
  41 H41            4.5642    -5.6656    -5.5358 H       
  42 H42            6.1742    -6.2092    -5.0061 H       
  43 H43            4.9862    -7.3936    -5.6012 H       
  44 H44           -4.0003    -3.8118     1.5184 H       
  45 H45           -4.1902    -4.0706    -0.2324 H       
  46 H46           -3.4311    -5.3259     0.7757 H       
  47 H47           -5.7571    -1.2062    -0.5144 H       
  48 H48           -5.5058    -1.0254     1.2389 H       
  49 H49           -7.8010    -0.3312     0.5626 H       
  50 H50           -6.8743     1.0314     1.2365 H       
  51 H51           -6.1738     2.5159    -2.0376 H       
  52 H52           -5.9225     2.6967    -0.2844 H       
  53 H53           -3.8786     1.8218    -1.3613 H       
  54 H54           -4.8053     0.4592    -2.0353 H       
  55 H55           -8.4013     2.5354     0.0126 H       
  56 H56           -8.5318     2.3778    -1.7555 H       
  57 H57           -9.2428     1.1364    -0.6965 H       
@<TRIPOS>BOND
   1    1    2 1
   2    1   31 1
   3    1   32 1
   4    1   33 1
   5    2    3 1
   6    3    4 ar
   7    3    8 ar
   8    4    5 ar
   9    5    6 ar
  10    5   24 1
  11    6    7 ar
  12    7    8 ar
  13    7   22 1
  14    8    9 1
  15    9   10 1
  16   10   11 ar
  17   10   15 ar
  18   11   12 ar
  19   11   34 1
  20   12   13 ar
  21   12   35 1
  22   13   14 ar
  23   13   36 1
  24   14   15 ar
  25   14   16 1
  26   15   37 1
  27   16   17 am
  28   16   38 1
  29   17   18 2
  30   17   19 1
  31   19   20 2
  32   19   21 1
  33   20   39 1
  34   20   40 1
  35   21   41 1
  36   21   42 1
  37   21   43 1
  38   22   23 1
  39   23   44 1
  40   23   45 1
  41   23   46 1
  42   24   25 1
  43   24   29 1
  44   25   26 1
  45   25   47 1
  46   25   48 1
  47   26   27 1
  48   26   49 1
  49   26   50 1
  50   27   28 1
  51   27   30 1
  52   28   29 1
  53   28   51 1
  54   28   52 1
  55   29   53 1
  56   29   54 1
  57   30   55 1
  58   30   56 1
  59   30   57 1

#	End of record

