#	Name: ASD05303031
#	Creating user name:	WinNT
#	Creation time:	15. 06. 2019 20:58

#	Modifying user name:	WinNT
#	Modification time:	15. 06. 2019 20:58

#	Program:	/corina/corina34_cracker 3.40 0067  02.08.2006

@<TRIPOS>MOLECULE
ASD05303031
  45   48    0    0    0
SMALL
NO_CHARGES


@<TRIPOS>ATOM
   1 C1             0.1209     1.5309    -0.5325 C.ar    
   2 C2             0.0889     0.1511    -0.6049 C.ar    
   3 C3             1.2503    -0.5793    -0.4240 C.ar    
   4 C4             2.4426     0.0755    -0.1709 C.ar    
   5 C5             2.4793     1.4665    -0.1006 C.ar    
   6 C6             1.3108     2.1897    -0.2813 C.ar    
   7 O7             3.6481     2.1138     0.1393 O.3     
   8 N8             3.6306    -0.6531     0.0235 N.am    
   9 C9             4.7157     1.4225     0.6135 C.ar    
  10 C10            4.7349     0.0302     0.5654 C.ar    
  11 C11            5.8275    -0.6696     1.0459 C.ar    
  12 C12            6.9047     0.0169     1.5783 C.ar    
  13 C13            6.8882     1.3979     1.6296 C.ar    
  14 C14            5.7983     2.1016     1.1501 C.ar    
  15 C15            3.7080    -1.9597    -0.2976 C.2     
  16 O16            2.6924    -2.5975    -0.4991 O.2     
  17 N17            4.9109    -2.5596    -0.3953 N.am    
  18 H18            5.7224    -2.0310    -0.3397 H       
  19 C19            4.9930    -4.0099    -0.5856 C.3     
  20 C20            6.3175    -4.3623    -1.2682 C.3     
  21 C21            6.4245    -5.8824    -1.4091 C.3     
  22 N22            6.3572    -6.5043    -0.0806 N.3     
  23 C23            5.0746    -6.2190     0.5750 C.3     
  24 C24            6.5953    -7.9515    -0.1641 C.3     
  25 C25            4.9272    -4.7090     0.7751 C.3     
  26 H26           -0.7869     2.0978    -0.6771 H       
  27 H27           -0.8432    -0.3574    -0.8024 H       
  28 H28            1.2261    -1.6575    -0.4800 H       
  29 H29            1.3296     3.2682    -0.2264 H       
  30 H30            5.8395    -1.7488     1.0059 H       
  31 H31            7.7588    -0.5269     1.9542 H       
  32 H32            7.7301     1.9303     2.0470 H       
  33 H33            5.7914     3.1807     1.1924 H       
  34 H34            4.1625    -4.3432    -1.2079 H       
  35 H35            6.3518    -3.9019    -2.2556 H       
  36 H36            7.1471    -3.9934    -0.6651 H       
  37 H37            5.6023    -6.2489    -2.0238 H       
  38 H38            7.3729    -6.1374    -1.8819 H       
  39 H39            4.2587    -6.5840    -0.0490 H       
  40 H40            5.0425    -6.7185     1.5432 H       
  41 H41            7.5840    -8.1333    -0.5855 H       
  42 H42            6.5398    -8.3870     0.8335 H       
  43 H43            5.8388    -8.4079    -0.8024 H       
  44 H44            5.7350    -4.3455     1.4104 H       
  45 H45            3.9682    -4.4963     1.2476 H       
@<TRIPOS>BOND
   1    1    2 ar
   2    1    6 ar
   3    1   26 1
   4    2    3 ar
   5    2   27 1
   6    3    4 ar
   7    3   28 1
   8    4    5 ar
   9    4    8 1
  10    5    6 ar
  11    5    7 1
  12    6   29 1
  13    7    9 1
  14    8   10 1
  15    8   15 am
  16    9   10 ar
  17    9   14 ar
  18   10   11 ar
  19   11   12 ar
  20   11   30 1
  21   12   13 ar
  22   12   31 1
  23   13   14 ar
  24   13   32 1
  25   14   33 1
  26   15   16 2
  27   15   17 am
  28   17   18 1
  29   17   19 1
  30   19   20 1
  31   19   25 1
  32   19   34 1
  33   20   21 1
  34   20   35 1
  35   20   36 1
  36   21   22 1
  37   21   37 1
  38   21   38 1
  39   22   23 1
  40   22   24 1
  41   23   25 1
  42   23   39 1
  43   23   40 1
  44   24   41 1
  45   24   42 1
  46   24   43 1
  47   25   44 1
  48   25   45 1

#	End of record

