#	Name: ASD05273010
#	Creating user name:	WinNT
#	Creation time:	15. 06. 2019 20:58

#	Modifying user name:	WinNT
#	Modification time:	15. 06. 2019 20:58

#	Program:	/corina/corina34_cracker 3.40 0067  02.08.2006

@<TRIPOS>MOLECULE
ASD05273010
  11   11    0    0    0
SMALL
NO_CHARGES


@<TRIPOS>ATOM
   1 C1            -0.0154     1.2861     0.0091 C.2     
   2 N2             0.0021    -0.0041     0.0020 N.2     
   3 C3             1.1829    -0.5889    -0.0124 C.2     
   4 C4             2.2192     0.2549    -0.0178 C.2     
   5 S5             1.5813     1.8973    -0.0029 S.3     
   6 C6             1.3510    -2.0864    -0.0216 C.3     
   7 H7            -0.9093     1.8921     0.0168 H       
   8 H8             3.2633    -0.0211    -0.0289 H       
   9 H9             1.3819    -2.4423    -1.0514 H       
  10 H10            2.2806    -2.3508     0.4823 H       
  11 H11            0.5119    -2.5494     0.4977 H       
@<TRIPOS>BOND
   1    1    2 2
   2    1    5 1
   3    1    7 1
   4    2    3 1
   5    3    4 2
   6    3    6 1
   7    4    5 1
   8    4    8 1
   9    6    9 1
  10    6   10 1
  11    6   11 1

#	End of record

