#	Name: ASD02038680
#	Creating user name:	WinNT
#	Creation time:	15. 06. 2019 20:17

#	Modifying user name:	WinNT
#	Modification time:	15. 06. 2019 20:17

#	Program:	/corina/corina34_cracker 3.40 0067  02.08.2006

@<TRIPOS>MOLECULE
ASD02038680
  47   48    0    0    0
SMALL
NO_CHARGES


@<TRIPOS>ATOM
   1 C1            -0.1006     1.4348    -0.1645 C.ar    
   2 C2            -0.1426     0.0547    -0.1950 C.ar    
   3 C3             1.0257    -0.6768    -0.0839 C.ar    
   4 C4             0.9759    -2.1826    -0.1177 C.3     
   5 C5             1.1125    -2.6651    -1.5632 C.3     
   6 C6             1.0627    -4.1709    -1.5969 C.2     
   7 N7             1.1646    -4.8223    -2.7724 N.am    
   8 N8             1.1183    -6.2222    -2.8038 N.am    
   9 C9             1.2201    -6.8736    -3.9792 C.2     
  10 C10            0.1763    -9.0300    -6.2161 C.ar    
  11 C11            0.2983    -9.4658    -7.5220 C.ar    
  12 C12            1.5500    -9.7269    -8.0501 C.ar    
  13 C13            2.6800    -9.5513    -7.2697 C.ar    
  14 C14            2.5562    -9.1146    -5.9628 C.ar    
  15 C15            1.3049    -8.8547    -5.4368 C.ar    
  16 C16            1.1170     2.0881    -0.0219 C.ar    
  17 C17            2.2887     1.3502     0.0894 C.ar    
  18 C18            2.2395    -0.0296     0.0577 C.ar    
  19 C19            1.1704    -8.3794    -4.0130 C.3     
  20 O20            1.3518    -6.2480    -5.0098 O.2     
  21 Cl21           1.7037   -10.2748    -9.6901 Cl      
  22 O22            0.9311    -4.7965    -0.5663 O.2     
  23 Cl23           4.2515    -9.8791    -7.9306 Cl      
  24 N24            1.1632     3.4837     0.0089 N.am    
  25 S25            0.6755     4.2985     1.3656 S.o2    
  26 O26           -0.6254     3.7916     1.6302 O.2     
  27 C27            1.8387     3.7703     2.6535 C.3     
  28 O28            0.8766     5.6678     1.0433 O.2     
  29 H29           -1.0129     2.0056    -0.2558 H       
  30 H30           -1.0890    -0.4538    -0.3054 H       
  31 H31            1.7938    -2.5866     0.4790 H       
  32 H32            0.0249    -2.5239     0.2910 H       
  33 H33            0.2946    -2.2611    -2.1598 H       
  34 H34            2.0635    -2.3237    -1.9719 H       
  35 H35            1.2699    -4.3219    -3.5967 H       
  36 H36            1.0130    -6.7226    -1.9795 H       
  37 H37           -0.8007    -8.8220    -5.8056 H       
  38 H38           -0.5837    -9.6028    -8.1301 H       
  39 H39            3.4372    -8.9778    -5.3534 H       
  40 H40            3.2370     1.8550     0.2000 H       
  41 H41            3.1501    -0.6039     0.1445 H       
  42 H42            1.9882    -8.7834    -3.4163 H       
  43 H43            0.2193    -8.7208    -3.6043 H       
  44 H44            1.4809     3.9756    -0.7644 H       
  45 H45            2.8594     3.9584     2.3205 H       
  46 H46            1.6460     4.3299     3.5688 H       
  47 H47            1.7095     2.7050     2.8450 H       
@<TRIPOS>BOND
   1    1    2 ar
   2    1   16 ar
   3    1   29 1
   4    2    3 ar
   5    2   30 1
   6    3    4 1
   7    3   18 ar
   8    4    5 1
   9    4   31 1
  10    4   32 1
  11    5    6 1
  12    5   33 1
  13    5   34 1
  14    6    7 am
  15    6   22 2
  16    7    8 1
  17    7   35 1
  18    8    9 am
  19    8   36 1
  20    9   19 1
  21    9   20 2
  22   10   11 ar
  23   10   15 ar
  24   10   37 1
  25   11   12 ar
  26   11   38 1
  27   12   13 ar
  28   12   21 1
  29   13   14 ar
  30   13   23 1
  31   14   15 ar
  32   14   39 1
  33   15   19 1
  34   16   17 ar
  35   16   24 1
  36   17   18 ar
  37   17   40 1
  38   18   41 1
  39   19   42 1
  40   19   43 1
  41   24   25 am
  42   24   44 1
  43   25   26 2
  44   25   27 1
  45   25   28 2
  46   27   45 1
  47   27   46 1
  48   27   47 1

#	End of record

