#	Name: ASD03082164
#	Creating user name:	WinNT
#	Creation time:	15. 06. 2019 20:27

#	Modifying user name:	WinNT
#	Modification time:	15. 06. 2019 20:27

#	Program:	/corina/corina34_cracker 3.40 0067  02.08.2006

@<TRIPOS>MOLECULE
ASD03082164
  44   46    0    0    0
SMALL
NO_CHARGES


@<TRIPOS>ATOM
   1 C1             0.0237     1.3760    -0.4467 C.ar    
   2 C2            -0.9988     1.9071    -1.2219 C.ar    
   3 C3            -2.1683     1.1946    -1.4048 C.ar    
   4 C4            -2.3226    -0.0481    -0.8159 C.ar    
   5 C5            -1.3035    -0.5814    -0.0405 C.ar    
   6 C6            -0.1290     0.1260     0.1392 C.ar    
   7 F7            -1.4563    -1.7943     0.5344 F       
   8 N8             1.2080     2.0965    -0.2608 N.pl3   
   9 C9             2.5484     6.8150     0.0651 C.3     
  10 C10           -0.5242     6.6633    -0.3175 C.ar    
  11 C11           -1.8909     6.4811    -0.0773 C.ar    
  12 C12           -0.0517     7.9439    -0.6266 C.ar    
  13 C13           -0.9605     8.9838    -0.6824 C.ar    
  14 C14           -2.3098     8.7236    -0.4303 C.ar    
  15 N15           -2.7236     7.4935    -0.1395 N.ar    
  16 C16            3.0793     7.2344    -1.3072 C.3     
  17 O17            3.9852     6.2410    -1.7914 O.3     
  18 N18            1.7487     5.5953    -0.0726 N.pl3   
  19 C19            0.4089     5.5193    -0.2398 C.2     
  20 N20            2.2218     4.2732    -0.0633 N.2     
  21 C21            1.1765     3.4914    -0.2146 C.2     
  22 N22            0.0817     4.2445    -0.3211 N.2     
  23 F23           -3.4674    -0.7426    -0.9959 F       
  24 C24            3.8090     8.5735    -1.1843 C.3     
  25 H25            4.3617     6.4415    -2.6593 H       
  26 C26           -3.2867     9.8258    -0.4869 C.2     
  27 C27           -4.7444     9.5554    -0.2166 C.3     
  28 O28           -2.9175    10.9500    -0.7510 O.2     
  29 H29           -0.8799     2.8772    -1.6815 H       
  30 H30           -2.9632     1.6081    -2.0079 H       
  31 H31            0.6650    -0.2889     0.7425 H       
  32 H32            2.0512     1.6269    -0.1640 H       
  33 H33            3.3860     6.6264     0.7366 H       
  34 H34            1.9276     7.6124     0.4737 H       
  35 H35           -2.2645     5.4964     0.1616 H       
  36 H36            0.9975     8.1154    -0.8166 H       
  37 H37           -0.6316     9.9852    -0.9177 H       
  38 H38            2.2466     7.3369    -2.0031 H       
  39 H39            3.1180     9.3313    -0.8149 H       
  40 H40            4.6417     8.4710    -0.4884 H       
  41 H41            4.1872     8.8723    -2.1619 H       
  42 H42           -4.8833     8.4964     0.0006 H       
  43 H43           -5.0713    10.1475     0.6382 H       
  44 H44           -5.3329     9.8268    -1.0930 H       
@<TRIPOS>BOND
   1    1    2 ar
   2    1    8 1
   3    1    6 ar
   4    2    3 ar
   5    2   29 1
   6    3    4 ar
   7    3   30 1
   8    4    5 ar
   9    4   23 1
  10    5    6 ar
  11    5    7 1
  12    6   31 1
  13    8   21 1
  14    8   32 1
  15    9   16 1
  16    9   18 1
  17    9   33 1
  18    9   34 1
  19   10   11 ar
  20   10   12 ar
  21   10   19 1
  22   11   15 ar
  23   11   35 1
  24   12   13 ar
  25   12   36 1
  26   13   14 ar
  27   13   37 1
  28   14   15 ar
  29   14   26 1
  30   16   17 1
  31   16   24 1
  32   16   38 1
  33   17   25 1
  34   18   20 1
  35   18   19 1
  36   19   22 2
  37   20   21 2
  38   21   22 1
  39   24   39 1
  40   24   40 1
  41   24   41 1
  42   26   27 1
  43   26   28 2
  44   27   42 1
  45   27   43 1
  46   27   44 1

#	End of record

