#	Name: ASD05430127
#	Creating user name:	WinNT
#	Creation time:	15. 06. 2019 20:59

#	Modifying user name:	WinNT
#	Modification time:	15. 06. 2019 20:59

#	Program:	/corina/corina34_cracker 3.40 0067  02.08.2006

@<TRIPOS>MOLECULE
ASD05430127
  65   70    0    0    0
SMALL
NO_CHARGES


@<TRIPOS>ATOM
   1 F1            13.2036     0.8218    -1.4280 F       
   2 C2            -0.0169     1.2028    -0.1296 C.ar    
   3 C3             0.0022     0.0028    -0.8398 C.ar    
   4 C4             1.1954    -0.4805    -1.3613 C.ar    
   5 C5             2.3659     0.2232    -1.1790 C.ar    
   6 C6             2.3544     1.4274    -0.4677 C.ar    
   7 C7             1.1533     1.9141     0.0568 C.ar    
   8 C8             4.8474     0.0095    -0.0603 C.3     
   9 C9             4.7742     1.5249    -0.1601 C.2     
  10 C10            3.6040     2.1804    -0.2715 C.2     
  11 C11            5.9146    -0.3454     0.9833 C.3     
  12 C12            7.3226     0.1925     0.6975 C.3     
  13 N13            7.2243     1.6116     0.3631 N.pl3   
  14 C14            6.0735     2.2319    -0.1273 C.2     
  15 C15            9.5711     2.1675    -0.0356 C.ar    
  16 C16           10.0552     0.9388     0.3730 C.ar    
  17 C17           11.2745     0.4859    -0.0939 C.ar    
  18 C18           12.0113     1.2633    -0.9712 C.ar    
  19 C19           11.5255     2.4938    -1.3798 C.ar    
  20 C20           10.3034     2.9423    -0.9156 C.ar    
  21 N21           -1.1853    -0.7174    -1.0274 N.pl3   
  22 C22           -1.6618    -1.2079    -2.2156 C.2     
  23 C23           -2.8240    -1.8310    -1.9423 C.2     
  24 N24           -3.0554    -1.7269    -0.6253 N.2     
  25 C25           -2.0785    -1.0665    -0.0655 C.2     
  26 C26           -3.7114    -2.5249    -2.9433 C.3     
  27 N27            6.3420     3.4299    -0.5307 N.2     
  28 C28            8.2410     2.6601     0.4739 C.3     
  29 O29            7.7267     3.7077    -0.3745 O.3     
  30 C30            8.3639     3.1428     1.9206 C.3     
  31 O31            8.9170     2.0996     2.7255 O.3     
  32 C32           -1.1333     2.9107     1.0914 C.3     
  33 O33           -1.1876     1.6757     0.3747 O.3     
  34 C34            5.4736    -0.4322     2.4440 C.3     
  35 C35            5.8057    -1.7082     1.6674 C.3     
  36 C36            9.2793     4.3676     1.9735 C.3     
  37 H37            1.2058    -1.4102    -1.9107 H       
  38 H38            3.2924    -0.1553    -1.5850 H       
  39 H39            1.1399     2.8438     0.6064 H       
  40 H40            3.8809    -0.3863     0.2516 H       
  41 H41            5.1236    -0.4106    -1.0275 H       
  42 H42            3.5818     3.2588    -0.2169 H       
  43 H43            7.9479     0.0678     1.5816 H       
  44 H44            7.7584    -0.3512    -0.1407 H       
  45 H45            9.4804     0.3327     1.0577 H       
  46 H46           11.6526    -0.4739     0.2257 H       
  47 H47           12.0993     3.1011    -2.0641 H       
  48 H48            9.9242     3.9021    -1.2341 H       
  49 H49           -1.1950    -1.1125    -3.1848 H       
  50 H50           -1.9974    -0.8311     0.9855 H       
  51 H51           -3.4168    -3.5710    -3.0263 H       
  52 H52           -4.7483    -2.4645    -2.6129 H       
  53 H53           -3.6108    -2.0410    -3.9149 H       
  54 H54            7.3774     3.4099     2.2995 H       
  55 H55            9.8316     1.8760     2.5054 H       
  56 H56           -0.4671     2.8050     1.9476 H       
  57 H57           -0.7589     3.6959     0.4346 H       
  58 H58           -2.1325     3.1734     1.4388 H       
  59 H59            6.1836    -0.1065     3.2042 H       
  60 H60            4.4245    -0.2364     2.6655 H       
  61 H61            4.9751    -2.3519     1.3779 H       
  62 H62            6.7342    -2.2219     1.9167 H       
  63 H63            8.8575     5.1633     1.3595 H       
  64 H64            9.3668     4.7115     3.0041 H       
  65 H65           10.2658     4.1005     1.5946 H       
@<TRIPOS>BOND
   1    1   18 1
   2    2    3 ar
   3    2    7 ar
   4    2   33 1
   5    3    4 ar
   6    3   21 1
   7    4    5 ar
   8    4   37 1
   9    5    6 ar
  10    5   38 1
  11    6    7 ar
  12    6   10 1
  13    7   39 1
  14    8    9 1
  15    8   11 1
  16    8   40 1
  17    8   41 1
  18    9   10 2
  19    9   14 1
  20   10   42 1
  21   11   12 1
  22   11   34 1
  23   11   35 1
  24   12   13 1
  25   12   43 1
  26   12   44 1
  27   13   14 1
  28   13   28 1
  29   14   27 2
  30   15   16 ar
  31   15   28 1
  32   15   20 ar
  33   16   17 ar
  34   16   45 1
  35   17   18 ar
  36   17   46 1
  37   18   19 ar
  38   19   20 ar
  39   19   47 1
  40   20   48 1
  41   21   22 1
  42   21   25 1
  43   22   23 2
  44   22   49 1
  45   23   24 1
  46   23   26 1
  47   24   25 2
  48   25   50 1
  49   26   51 1
  50   26   52 1
  51   26   53 1
  52   27   29 1
  53   28   29 1
  54   28   30 1
  55   30   31 1
  56   30   36 1
  57   30   54 1
  58   31   55 1
  59   32   33 1
  60   32   56 1
  61   32   57 1
  62   32   58 1
  63   34   35 1
  64   34   59 1
  65   34   60 1
  66   35   61 1
  67   35   62 1
  68   36   63 1
  69   36   64 1
  70   36   65 1

#	End of record

