#	Name: ASD03240208
#	Creating user name:	WinNT
#	Creation time:	15. 06. 2019 20:34

#	Modifying user name:	WinNT
#	Modification time:	15. 06. 2019 20:34

#	Program:	/corina/corina34_cracker 3.40 0067  02.08.2006

@<TRIPOS>MOLECULE
ASD03240208
  69   72    0    0    0
SMALL
NO_CHARGES


@<TRIPOS>ATOM
   1 C1             0.0759     1.5182     0.6028 C.2     
   2 N2             0.1814     0.2806     1.1924 N.pl3   
   3 C3            -2.6689     4.0238     0.1450 C.3     
   4 C4            -1.2380     3.5050    -0.0110 C.3     
   5 N5            -1.1256     2.1863     0.6173 N.pl3   
   6 N6             1.1163     2.0603     0.0349 N.2     
   7 N7            -2.7813     5.3425    -0.4833 N.pl3   
   8 C8            -3.9966     6.0183    -0.4687 C.ar    
   9 C9            -4.1018     7.2714    -1.0661 C.ar    
  10 C10           -5.3029     7.9427    -1.0534 C.ar    
  11 C11           -6.4185     7.3648    -0.4400 C.ar    
  12 C12           -6.3097     6.1061     0.1587 C.ar    
  13 C13           -5.1069     5.4378     0.1383 C.ar    
  14 C14           -7.7073     8.0818    -0.4241 C.2     
  15 N15           -8.7819     7.5234     0.1676 N.am    
  16 O16           -7.8005     9.1768    -0.9449 O.2     
  17 C17           -9.9746     8.2491     0.2818 C.ar    
  18 C18          -11.1964     7.5961     0.1862 C.ar    
  19 C19           -9.9351     9.6205     0.4963 C.ar    
  20 C20          -11.1105    10.3358     0.6093 C.ar    
  21 C21          -12.3326     9.6837     0.5080 C.ar    
  22 C22          -12.3720     8.3112     0.2987 C.ar    
  23 N23          -13.5238    10.4082     0.6229 N.pl3   
  24 C24          -14.8129     9.7203     0.5161 C.3     
  25 C25          -13.4822    11.8549     0.8501 C.3     
  26 C26          -13.4692    12.5714    -0.4756 C.ar    
  27 C27          -15.2536     9.2640     1.8830 C.ar    
  28 C28          -14.6599    12.9335    -1.0772 C.ar    
  29 C29          -14.6480    13.5907    -2.2933 C.ar    
  30 C30          -13.4454    13.8863    -2.9075 C.ar    
  31 C31          -12.2547    13.5250    -2.3054 C.ar    
  32 C32          -12.2665    12.8716    -1.0872 C.ar    
  33 C33          -16.0245    10.0952     2.6740 C.ar    
  34 C34          -16.4287     9.6766     3.9279 C.ar    
  35 C35          -16.0623     8.4267     4.3907 C.ar    
  36 C36          -15.2921     7.5951     3.5994 C.ar    
  37 C37          -14.8916     8.0120     2.3438 C.ar    
  38 H38            1.0301    -0.1890     1.1857 H       
  39 H39           -0.5929    -0.1228     1.6150 H       
  40 H40           -3.3606     3.3322    -0.3359 H       
  41 H41           -2.9129     4.1041     1.2043 H       
  42 H42           -0.9940     3.4248    -1.0703 H       
  43 H43           -0.5463     4.1967     0.4699 H       
  44 H44           -1.8989     1.7846     1.0434 H       
  45 H45            1.0418     2.9335    -0.3810 H       
  46 H46           -2.0081     5.7443    -0.9094 H       
  47 H47           -3.2396     7.7172    -1.5398 H       
  48 H48           -5.3837     8.9150    -1.5164 H       
  49 H49           -7.1695     5.6572     0.6336 H       
  50 H50           -5.0222     4.4655     0.6006 H       
  51 H51           -8.7293     6.6190     0.5144 H       
  52 H52          -11.2271     6.5289     0.0234 H       
  53 H53           -8.9848    10.1276     0.5751 H       
  54 H54          -11.0798    11.4022     0.7768 H       
  55 H55          -13.3223     7.8040     0.2199 H       
  56 H56          -15.5559    10.4030     0.1039 H       
  57 H57          -14.7101     8.8559    -0.1399 H       
  58 H58          -14.3610    12.1588     1.4188 H       
  59 H59          -12.5818    12.1091     1.4094 H       
  60 H60          -15.5995    12.7026    -0.5974 H       
  61 H61          -15.5783    13.8730    -2.7637 H       
  62 H62          -13.4361    14.3991    -3.8579 H       
  63 H63          -11.3151    13.7556    -2.7854 H       
  64 H64          -11.3362    12.5894    -0.6168 H       
  65 H65          -16.3108    11.0718     2.3124 H       
  66 H66          -17.0305    10.3263     4.5461 H       
  67 H67          -16.3775     8.0999     5.3706 H       
  68 H68          -15.0056     6.6186     3.9611 H       
  69 H69          -14.2898     7.3623     1.7255 H       
@<TRIPOS>BOND
   1    1    2 1
   2    1    6 2
   3    1    5 1
   4    2   38 1
   5    2   39 1
   6    3    4 1
   7    3    7 1
   8    3   40 1
   9    3   41 1
  10    4    5 1
  11    4   42 1
  12    4   43 1
  13    5   44 1
  14    6   45 1
  15    7    8 1
  16    7   46 1
  17    8    9 ar
  18    8   13 ar
  19    9   10 ar
  20    9   47 1
  21   10   11 ar
  22   10   48 1
  23   11   12 ar
  24   11   14 1
  25   12   13 ar
  26   12   49 1
  27   13   50 1
  28   14   15 am
  29   14   16 2
  30   15   17 1
  31   15   51 1
  32   17   18 ar
  33   17   19 ar
  34   18   22 ar
  35   18   52 1
  36   19   20 ar
  37   19   53 1
  38   20   21 ar
  39   20   54 1
  40   21   22 ar
  41   21   23 1
  42   22   55 1
  43   23   24 1
  44   23   25 1
  45   24   27 1
  46   24   56 1
  47   24   57 1
  48   25   26 1
  49   25   58 1
  50   25   59 1
  51   26   28 ar
  52   26   32 ar
  53   27   33 ar
  54   27   37 ar
  55   28   29 ar
  56   28   60 1
  57   29   30 ar
  58   29   61 1
  59   30   31 ar
  60   30   62 1
  61   31   32 ar
  62   31   63 1
  63   32   64 1
  64   33   34 ar
  65   33   65 1
  66   34   35 ar
  67   34   66 1
  68   35   36 ar
  69   35   67 1
  70   36   37 ar
  71   36   68 1
  72   37   69 1

#	End of record

