#	Name: ASD01911126
#	Creating user name:	WinNT
#	Creation time:	15. 06. 2019 19:57

#	Modifying user name:	WinNT
#	Modification time:	15. 06. 2019 19:57

#	Program:	/corina/corina34_cracker 3.40 0067  02.08.2006

@<TRIPOS>MOLECULE
ASD01911126
  45   48    0    0    0
SMALL
NO_CHARGES


@<TRIPOS>ATOM
   1 C1             0.1174     1.0168     0.1941 C.2     
   2 O2             1.1326     1.6833     0.2437 O.2     
   3 C3             0.2040    -0.4543     0.0748 C.ar    
   4 C4             1.2099    -1.0369    -0.6978 C.ar    
   5 C5             1.2851    -2.4102    -0.8050 C.ar    
   6 C6             0.3663    -3.2097    -0.1486 C.ar    
   7 C7            -0.6333    -2.6386     0.6188 C.ar    
   8 C8            -0.7163    -1.2668     0.7390 C.ar    
   9 N9            -1.0872     1.6183     0.2533 N.am    
  10 C10           -2.3206     0.8453     0.0528 C.3     
  11 C11           -3.1496     1.5162    -1.0469 C.3     
  12 C12           -3.3803     2.9845    -0.6823 C.3     
  13 C13           -2.0338     3.7053    -0.5848 C.3     
  14 C14           -1.1924     3.0582     0.5257 C.3     
  15 O15           -5.4033     0.6867    -0.2190 O.3     
  16 N16           -6.3552     0.0681    -0.6459 N.2     
  17 C17           -6.1543    -0.2629    -1.8918 C.2     
  18 N18           -4.9428     0.2155    -2.2429 N.2     
  19 C19           -4.4774     0.8149    -1.1743 C.2     
  20 O20           -7.0050    -0.9589    -2.6862 O.3     
  21 C21           -8.1409    -1.4524    -2.1266 C.ar    
  22 C22           -8.4753    -1.1168    -0.8228 C.ar    
  23 C23           -9.6321    -1.6207    -0.2556 C.ar    
  24 C24          -10.4549    -2.4594    -0.9894 C.ar    
  25 C25          -10.1219    -2.7940    -2.2884 C.ar    
  26 C26           -8.9703    -2.2882    -2.8603 C.ar    
  27 F27           -9.9592    -1.2952     1.0141 F       
  28 H28            1.9276    -0.4139    -1.2109 H       
  29 H29            2.0628    -2.8623    -1.4028 H       
  30 H30            0.4293    -4.2843    -0.2361 H       
  31 H31           -1.3475    -3.2683     1.1286 H       
  32 H32           -1.4941    -0.8224     1.3422 H       
  33 H33           -2.0695    -0.1718    -0.2479 H       
  34 H34           -2.8930     0.8236     0.9802 H       
  35 H35           -2.6137     1.4564    -1.9941 H       
  36 H36           -3.9909     3.4580    -1.4512 H       
  37 H37           -3.8944     3.0440     0.2770 H       
  38 H38           -1.5084     3.6249    -1.5365 H       
  39 H39           -2.2001     4.7563    -0.3481 H       
  40 H40           -1.6747     3.2133     1.4908 H       
  41 H41           -0.1967     3.5016     0.5370 H       
  42 H42           -7.8333    -0.4631    -0.2511 H       
  43 H43          -11.3577    -2.8526    -0.5457 H       
  44 H44          -10.7649    -3.4481    -2.8586 H       
  45 H45           -8.7138    -2.5466    -3.8771 H       
@<TRIPOS>BOND
   1    1    2 2
   2    1    3 1
   3    1    9 am
   4    3    4 ar
   5    3    8 ar
   6    4    5 ar
   7    4   28 1
   8    5    6 ar
   9    5   29 1
  10    6    7 ar
  11    6   30 1
  12    7    8 ar
  13    7   31 1
  14    8   32 1
  15    9   10 1
  16    9   14 1
  17   10   11 1
  18   10   33 1
  19   10   34 1
  20   11   12 1
  21   11   19 1
  22   11   35 1
  23   12   13 1
  24   12   36 1
  25   12   37 1
  26   13   14 1
  27   13   38 1
  28   13   39 1
  29   14   40 1
  30   14   41 1
  31   15   16 1
  32   15   19 1
  33   16   17 2
  34   17   18 1
  35   17   20 1
  36   18   19 2
  37   20   21 1
  38   21   22 ar
  39   21   26 ar
  40   22   23 ar
  41   22   42 1
  42   23   24 ar
  43   23   27 1
  44   24   25 ar
  45   24   43 1
  46   25   26 ar
  47   25   44 1
  48   26   45 1

#	End of record

