#	Name: ASD01001248
#	Creating user name:	WinNT
#	Creation time:	15. 06. 2019 18:55

#	Modifying user name:	WinNT
#	Modification time:	15. 06. 2019 18:55

#	Program:	/corina/corina34_cracker 3.40 0067  02.08.2006

@<TRIPOS>MOLECULE
ASD01001248
  54   56    0    0    0
SMALL
NO_CHARGES


@<TRIPOS>ATOM
   1 C1            -0.2629     0.7384     0.8729 C.ar    
   2 C2            -0.1057    -0.5938     0.5400 C.ar    
   3 C3             1.1372    -1.0713     0.1678 C.ar    
   4 C4             2.2225    -0.2163     0.1281 C.ar    
   5 C5             2.0650     1.1165     0.4602 C.ar    
   6 C6             0.8228     1.5935     0.8337 C.ar    
   7 C7             3.5775    -0.7370    -0.2768 C.3     
   8 C8             4.0780    -1.7008     0.7680 C.ar    
   9 C9             3.4680    -1.4454    -1.6024 C.ar    
  10 C10            3.3863    -1.8539     1.9551 C.ar    
  11 C11            3.8453    -2.7380     2.9134 C.ar    
  12 C12            4.9959    -3.4694     2.6846 C.ar    
  13 C13            5.6870    -3.3169     1.4972 C.ar    
  14 C14            5.2256    -2.4360     0.5370 C.ar    
  15 C15            3.6239    -2.8173    -1.6678 C.ar    
  16 C16            3.5235    -3.4671    -2.8838 C.ar    
  17 C17            3.2666    -2.7450    -4.0342 C.ar    
  18 C18            3.1097    -1.3732    -3.9686 C.ar    
  19 C19            3.2059    -0.7239    -2.7520 C.ar    
  20 C20            4.5564     0.4322    -0.4027 C.3     
  21 C21            5.8916    -0.0772    -0.9490 C.3     
  22 C22            6.8217     1.1093    -1.2103 C.3     
  23 C23           -1.2890    -1.5260     0.5833 C.3     
  24 C24            8.1769     0.6020    -1.6312 C.2     
  25 N25            6.2590     1.9467    -2.2780 N.3     
  26 C26            9.1106     0.0087    -0.6078 C.3     
  27 O27            8.5147     0.6710    -2.7885 O.2     
  28 H28           -1.2348     1.1123     1.1594 H       
  29 H29            1.2602    -2.1124    -0.0917 H       
  30 H30            2.9132     1.7844     0.4298 H       
  31 H31            0.6998     2.6346     1.0935 H       
  32 H32            2.4874    -1.2825     2.1338 H       
  33 H33            3.3053    -2.8571     3.8411 H       
  34 H34            5.3549    -4.1596     3.4337 H       
  35 H35            6.5861    -3.8881     1.3186 H       
  36 H36            5.7656    -2.3170    -0.3907 H       
  37 H37            3.8246    -3.3815    -0.7690 H       
  38 H38            3.6460    -4.5389    -2.9351 H       
  39 H39            3.1888    -3.2526    -4.9843 H       
  40 H40            2.9094    -0.8090    -4.8675 H       
  41 H41            3.0833     0.3479    -2.7007 H       
  42 H42            4.1460     1.1779    -1.0835 H       
  43 H43            4.7128     0.8822     0.5777 H       
  44 H44            6.3510    -0.7454    -0.2206 H       
  45 H45            5.7210    -0.6170    -1.8804 H       
  46 H46            6.9216     1.7000    -0.2997 H       
  47 H47           -1.7839    -1.5302    -0.3878 H       
  48 H48           -0.9491    -2.5337     0.8223 H       
  49 H49           -1.9898    -1.1883     1.3468 H       
  50 H50            6.1565     1.4214    -3.1334 H       
  51 H51            5.3792     2.3513    -1.9945 H       
  52 H52            8.9340    -1.0643    -0.5337 H       
  53 H53           10.1423     0.1871    -0.9107 H       
  54 H54            8.9307     0.4743     0.3612 H       
@<TRIPOS>BOND
   1    1    2 ar
   2    1    6 ar
   3    1   28 1
   4    2    3 ar
   5    2   23 1
   6    3    4 ar
   7    3   29 1
   8    4    5 ar
   9    4    7 1
  10    5    6 ar
  11    5   30 1
  12    6   31 1
  13    7    8 1
  14    7    9 1
  15    7   20 1
  16    8   10 ar
  17    8   14 ar
  18    9   15 ar
  19    9   19 ar
  20   10   11 ar
  21   10   32 1
  22   11   12 ar
  23   11   33 1
  24   12   13 ar
  25   12   34 1
  26   13   14 ar
  27   13   35 1
  28   14   36 1
  29   15   16 ar
  30   15   37 1
  31   16   17 ar
  32   16   38 1
  33   17   18 ar
  34   17   39 1
  35   18   19 ar
  36   18   40 1
  37   19   41 1
  38   20   21 1
  39   20   42 1
  40   20   43 1
  41   21   22 1
  42   21   44 1
  43   21   45 1
  44   22   24 1
  45   22   25 1
  46   22   46 1
  47   23   47 1
  48   23   48 1
  49   23   49 1
  50   24   26 1
  51   24   27 2
  52   25   50 1
  53   25   51 1
  54   26   52 1
  55   26   53 1
  56   26   54 1

#	End of record

