#	Name: ASD04591145
#	Creating user name:	WinNT
#	Creation time:	15. 06. 2019 20:52

#	Modifying user name:	WinNT
#	Modification time:	15. 06. 2019 20:52

#	Program:	/corina/corina34_cracker 3.40 0067  02.08.2006

@<TRIPOS>MOLECULE
ASD04591145
  70   76    0    0    0
SMALL
NO_CHARGES


@<TRIPOS>ATOM
   1 N1            -2.2399    -2.5272    -0.0933 N.ar    
   2 C2            -1.0896    -1.8768     0.0275 C.ar    
   3 N3             0.0781    -2.4990     0.0267 N.ar    
   4 C4             0.1405    -3.8214    -0.0970 C.ar    
   5 C5            -1.0642    -4.5415    -0.2268 C.ar    
   6 C6            -2.2678    -3.8435    -0.2210 C.ar    
   7 N7             1.1842    -4.7127    -0.1298 N.pl3   
   8 C8             0.7119    -6.0054    -0.2776 C.ar    
   9 C9            -0.6921    -5.9572    -0.3438 C.ar    
  10 C10            1.3367    -7.2426    -0.3647 C.ar    
  11 N11            0.6269    -8.3435    -0.5061 N.ar    
  12 C12           -0.6928    -8.3326    -0.5716 C.ar    
  13 C13           -1.3979    -7.1503    -0.4942 C.ar    
  14 N14           -1.1121    -0.4981     0.1586 N.pl3   
  15 C15           -2.3204     0.1920     0.0619 C.ar    
  16 C16            2.5989    -4.3470    -0.0238 C.3     
  17 N17           -3.4225    -0.4619    -0.2677 N.ar    
  18 C18           -4.5871     0.1499    -0.3710 C.ar    
  19 C19           -4.6958     1.5122    -0.1356 C.ar    
  20 C20           -3.5558     2.2345     0.2140 C.ar    
  21 C21           -2.3540     1.5583     0.3185 C.ar    
  22 N22           -5.9347     2.1542    -0.2481 N.3     
  23 C23            2.9693    -3.3415    -1.1337 C.3     
  24 C24            2.8612    -3.6384     1.3166 C.3     
  25 C25            3.3819    -2.2271     0.9746 C.3     
  26 C26            2.8396    -1.9573    -0.4509 C.3     
  27 C27           -6.9881     1.2029    -0.6248 C.3     
  28 C28           -8.2934     1.9599    -0.8800 C.3     
  29 C29           -8.6944     2.7182     0.3884 C.3     
  30 C30           -7.5602     3.6667     0.7865 C.3     
  31 C31           -6.2762     2.8603     0.9934 C.3     
  32 N32           -9.9154     3.4934     0.1316 N.3     
  33 C33          -11.0406     2.6068    -0.2174 C.3     
  34 C34          -12.1761     2.8917     0.7880 C.3     
  35 C35          -11.8439     4.3198     1.2949 C.3     
  36 C36          -10.2952     4.2917     1.3166 C.3     
  37 H37           -3.2075    -4.3669    -0.3182 H       
  38 H38            2.4140    -7.3029    -0.3165 H       
  39 H39           -1.2272    -9.2638    -0.6882 H       
  40 H40           -2.4765    -7.1485    -0.5481 H       
  41 H41           -0.2876    -0.0125     0.3176 H       
  42 H42            3.2216    -5.2381    -0.1033 H       
  43 H43           -5.4656    -0.4167    -0.6423 H       
  44 H44           -3.6107     3.2964     0.4031 H       
  45 H45           -1.4512     2.0864     0.5877 H       
  46 H46            3.9926    -3.5060    -1.4713 H       
  47 H47            2.2735    -3.4217    -1.9688 H       
  48 H48            1.9359    -3.5666     1.8883 H       
  49 H49            3.6118    -4.1851     1.8874 H       
  50 H50            2.9871    -1.4940     1.6780 H       
  51 H51            4.4717    -2.2115     0.9775 H       
  52 H52            3.4519    -1.2151    -0.9631 H       
  53 H53            1.7972    -1.6409    -0.4142 H       
  54 H54           -6.6923     0.6735    -1.5305 H       
  55 H55           -7.1359     0.4861     0.1829 H       
  56 H56           -8.1502     2.6673    -1.6969 H       
  57 H57           -9.0789     1.2520    -1.1444 H       
  58 H58           -8.8755     2.0081     1.1953 H       
  59 H59           -7.4054     4.4009    -0.0041 H       
  60 H60           -7.8219     4.1782     1.7128 H       
  61 H61           -6.4274     2.1356     1.7935 H       
  62 H62           -5.4633     3.5345     1.2631 H       
  63 H63          -11.3804     2.8204    -1.2309 H       
  64 H64          -10.7296     1.5650    -0.1401 H       
  65 H65          -13.1453     2.8755     0.2895 H       
  66 H66          -12.1520     2.1758     1.6095 H       
  67 H67          -12.2110     5.0758     0.6008 H       
  68 H68          -12.2455     4.4824     2.2951 H       
  69 H69           -9.9371     3.8124     2.2277 H       
  70 H70           -9.8962     5.3029     1.2367 H       
@<TRIPOS>BOND
   1    1    2 ar
   2    1    6 ar
   3    2    3 ar
   4    2   14 1
   5    3    4 ar
   6    4    5 ar
   7    4    7 1
   8    5    6 ar
   9    5    9 1
  10    6   37 1
  11    7    8 1
  12    7   16 1
  13    8    9 ar
  14    8   10 ar
  15    9   13 ar
  16   10   11 ar
  17   10   38 1
  18   11   12 ar
  19   12   13 ar
  20   12   39 1
  21   13   40 1
  22   14   15 1
  23   14   41 1
  24   15   17 ar
  25   15   21 ar
  26   16   24 1
  27   16   23 1
  28   16   42 1
  29   17   18 ar
  30   18   19 ar
  31   18   43 1
  32   19   20 ar
  33   19   22 1
  34   20   21 ar
  35   20   44 1
  36   21   45 1
  37   22   27 1
  38   22   31 1
  39   23   26 1
  40   23   46 1
  41   23   47 1
  42   24   25 1
  43   24   48 1
  44   24   49 1
  45   25   26 1
  46   25   50 1
  47   25   51 1
  48   26   52 1
  49   26   53 1
  50   27   28 1
  51   27   54 1
  52   27   55 1
  53   28   29 1
  54   28   56 1
  55   28   57 1
  56   29   30 1
  57   29   32 1
  58   29   58 1
  59   30   31 1
  60   30   59 1
  61   30   60 1
  62   31   61 1
  63   31   62 1
  64   32   33 1
  65   32   36 1
  66   33   34 1
  67   33   63 1
  68   33   64 1
  69   34   35 1
  70   34   65 1
  71   34   66 1
  72   35   36 1
  73   35   67 1
  74   35   68 1
  75   36   69 1
  76   36   70 1

#	End of record

