#	Name: ASD01913202
#	Creating user name:	WinNT
#	Creation time:	15. 06. 2019 20:01

#	Modifying user name:	WinNT
#	Modification time:	15. 06. 2019 20:01

#	Program:	/corina/corina34_cracker 3.40 0067  02.08.2006

@<TRIPOS>MOLECULE
ASD01913202
  47   50    0    0    0
SMALL
NO_CHARGES


@<TRIPOS>ATOM
   1 N1            -0.6664     2.4338    -2.0365 N.ar    
   2 C2            -0.9060     1.2675    -2.5943 C.ar    
   3 C3             0.0941     0.3195    -2.7039 C.ar    
   4 C4             1.3527     0.6182    -2.2107 C.ar    
   5 C5             1.5662     1.8623    -1.6262 C.ar    
   6 C6             2.9387     2.1632    -1.0822 C.3     
   7 N7             3.0388     3.5907    -0.7581 N.am    
   8 C8             1.9028     4.2038    -0.0501 C.3     
   9 C9             0.6847     4.1412    -0.9702 C.3     
  10 C10            0.5277     2.7627    -1.5583 C.ar    
  11 C11            4.1265     4.3116    -1.0953 C.2     
  12 C12            5.3020     3.6417    -1.6862 C.ar    
  13 C13            6.0616     4.2940    -2.6563 C.ar    
  14 C14            7.1700     3.6570    -3.2099 C.ar    
  15 C15            7.5136     2.3625    -2.7864 C.ar    
  16 C16            6.7500     1.7230    -1.8207 C.ar    
  17 C17            5.6569     2.3551    -1.2687 C.ar    
  18 O18            4.1396     5.5135    -0.9128 O.2     
  19 C19            7.9558     4.3192    -4.2073 C.1     
  20 C20            8.6000     4.8621    -5.0249 C.1     
  21 C21            9.3858     5.5243    -6.0222 C.ar    
  22 C22           10.4963     4.8782    -6.5726 C.ar    
  23 C23           11.2444     5.5316    -7.5345 C.ar    
  24 C24           10.8612     6.8102    -7.9180 C.ar    
  25 C25            9.7514     7.3914    -7.3329 C.ar    
  26 N26            9.0506     6.7474    -6.4221 N.ar    
  27 O27            8.5915     1.7377    -3.3219 O.3     
  28 C28            8.8826     0.4226    -2.8446 C.3     
  29 H29           -1.8943     1.0477    -2.9702 H       
  30 H30           -0.1028    -0.6367    -3.1656 H       
  31 H31            2.1546    -0.1021    -2.2782 H       
  32 H32            3.1091     1.5738    -0.1812 H       
  33 H33            3.6894     1.9074    -1.8298 H       
  34 H34            1.6999     3.6526     0.8681 H       
  35 H35            2.1332     5.2427     0.1862 H       
  36 H36           -0.2093     4.3910    -0.3989 H       
  37 H37            0.8073     4.8637    -1.7770 H       
  38 H38            5.7917     5.2891    -2.9777 H       
  39 H39            7.0159     0.7275    -1.4969 H       
  40 H40            5.0697     1.8533    -0.5139 H       
  41 H41           10.7664     3.8832    -6.2510 H       
  42 H42           12.1079     5.0581    -7.9778 H       
  43 H43           11.4256     7.3463    -8.6667 H       
  44 H44            9.4522     8.3857    -7.6300 H       
  45 H45            9.0682     0.4585    -1.7711 H       
  46 H46            8.0348    -0.2326    -3.0450 H       
  47 H47            9.7667     0.0387    -3.3536 H       
@<TRIPOS>BOND
   1    1    2 ar
   2    1   10 ar
   3    2    3 ar
   4    2   29 1
   5    3    4 ar
   6    3   30 1
   7    4    5 ar
   8    4   31 1
   9    5    6 1
  10    5   10 ar
  11    6    7 1
  12    6   32 1
  13    6   33 1
  14    7    8 1
  15    7   11 am
  16    8    9 1
  17    8   34 1
  18    8   35 1
  19    9   10 1
  20    9   36 1
  21    9   37 1
  22   11   12 1
  23   11   18 2
  24   12   13 ar
  25   12   17 ar
  26   13   14 ar
  27   13   38 1
  28   14   15 ar
  29   14   19 1
  30   15   16 ar
  31   15   27 1
  32   16   17 ar
  33   16   39 1
  34   17   40 1
  35   19   20 3
  36   20   21 1
  37   21   22 ar
  38   21   26 ar
  39   22   23 ar
  40   22   41 1
  41   23   24 ar
  42   23   42 1
  43   24   25 ar
  44   24   43 1
  45   25   26 ar
  46   25   44 1
  47   27   28 1
  48   28   45 1
  49   28   46 1
  50   28   47 1

#	End of record

