#	Name: ASD01884752
#	Creating user name:	WinNT
#	Creation time:	15. 06. 2019 19:48

#	Modifying user name:	WinNT
#	Modification time:	15. 06. 2019 19:48

#	Program:	/corina/corina34_cracker 3.40 0067  02.08.2006

@<TRIPOS>MOLECULE
ASD01884752
  59   61    0    0    0
SMALL
NO_CHARGES


@<TRIPOS>ATOM
   1 C1            -2.5249     1.3042     0.4454 C.2     
   2 C2            -2.4949    -0.0874     0.4019 C.2     
   3 C3            -1.2932    -0.7296     0.0805 C.2     
   4 C4            -0.1772     0.0055    -0.1832 C.2     
   5 N5            -0.2047     1.3622    -0.1411 N.am    
   6 C6            -1.3378     2.0255     0.1568 C.2     
   7 O7            -1.3411     3.2445     0.1890 O.2     
   8 C8             1.0171     2.1170    -0.4306 C.3     
   9 C9            -3.7358     1.9960     0.7705 C.1     
  10 N10           -4.6964     2.5448     1.0284 N.1     
  11 C11            1.0889     2.4159    -1.9294 C.3     
  12 C12            2.3649     3.2041    -2.2316 C.3     
  13 C13            2.5003     3.3952    -3.7436 C.3     
  14 C14            2.2934     4.5716    -1.5491 C.3     
  15 N15           -1.2382    -2.1309     0.0303 N.pl3   
  16 C16            0.0494    -2.7664    -0.1462 C.3     
  17 C17            0.3235    -2.9699    -1.6576 C.3     
  18 C18           -0.5867    -3.9994    -2.1948 C.3     
  19 N19           -2.0056    -3.6552    -2.1082 N.3     
  20 C20           -2.5540    -4.0678    -0.8336 C.3     
  21 C21           -2.4974    -2.8924     0.1661 C.3     
  22 C22           -2.7240    -4.2183    -3.1692 C.ar    
  23 C23           -3.1801    -3.4153    -4.2038 C.ar    
  24 C24           -3.8892    -3.9740    -5.2511 C.ar    
  25 C25           -4.1451    -5.3321    -5.2700 C.ar    
  26 C26           -3.6934    -6.1393    -4.2415 C.ar    
  27 C27           -2.9780    -5.5884    -3.1917 C.ar    
  28 O28           -2.5328    -6.3809    -2.1800 O.3     
  29 C29           -2.8393    -7.7741    -2.2644 C.3     
  30 H30           -3.3845    -0.6622     0.6130 H       
  31 H31            0.7452    -0.4994    -0.4295 H       
  32 H32            1.0060     3.0537     0.1266 H       
  33 H33            1.8860     1.5288    -0.1353 H       
  34 H34            1.1000     1.4791    -2.4865 H       
  35 H35            0.2200     3.0040    -2.2246 H       
  36 H36            3.2286     2.6553    -1.8560 H       
  37 H37            1.6367     3.9439    -4.1192 H       
  38 H38            3.4093     3.9567    -3.9589 H       
  39 H39            2.5513     2.4209    -4.2298 H       
  40 H40            2.1969     4.4355    -0.4720 H       
  41 H41            3.2024     5.1332    -1.7645 H       
  42 H42            1.4297     5.1204    -1.9248 H       
  43 H43            0.8278    -2.1351     0.2823 H       
  44 H44            0.0490    -3.7337     0.3563 H       
  45 H45            0.1600    -2.0304    -2.1854 H       
  46 H46            1.3560    -3.2894    -1.7990 H       
  47 H47           -0.3356    -4.1709    -3.2415 H       
  48 H48           -0.4217    -4.9270    -1.6468 H       
  49 H49           -3.5896    -4.3800    -0.9682 H       
  50 H50           -1.9723    -4.9021    -0.4414 H       
  51 H51           -2.5764    -3.2835     1.1804 H       
  52 H52           -3.3374    -2.2238    -0.0227 H       
  53 H53           -2.9818    -2.3537    -4.1913 H       
  54 H54           -4.2442    -3.3477    -6.0561 H       
  55 H55           -4.6997    -5.7642    -6.0898 H       
  56 H56           -3.8954    -7.2000    -4.2592 H       
  57 H57           -2.4274    -8.2899    -1.3970 H       
  58 H58           -3.9209    -7.9075    -2.2867 H       
  59 H59           -2.4034    -8.1876    -3.1739 H       
@<TRIPOS>BOND
   1    1    2 2
   2    1    9 1
   3    1    6 1
   4    2    3 1
   5    2   30 1
   6    3    4 2
   7    3   15 1
   8    4    5 1
   9    4   31 1
  10    5    8 1
  11    5    6 am
  12    6    7 2
  13    8   11 1
  14    8   32 1
  15    8   33 1
  16    9   10 3
  17   11   12 1
  18   11   34 1
  19   11   35 1
  20   12   13 1
  21   12   14 1
  22   12   36 1
  23   13   37 1
  24   13   38 1
  25   13   39 1
  26   14   40 1
  27   14   41 1
  28   14   42 1
  29   15   16 1
  30   15   21 1
  31   16   17 1
  32   16   43 1
  33   16   44 1
  34   17   18 1
  35   17   45 1
  36   17   46 1
  37   18   19 1
  38   18   47 1
  39   18   48 1
  40   19   20 1
  41   19   22 1
  42   20   21 1
  43   20   49 1
  44   20   50 1
  45   21   51 1
  46   21   52 1
  47   22   23 ar
  48   22   27 ar
  49   23   24 ar
  50   23   53 1
  51   24   25 ar
  52   24   54 1
  53   25   26 ar
  54   25   55 1
  55   26   27 ar
  56   26   56 1
  57   27   28 1
  58   28   29 1
  59   29   57 1
  60   29   58 1
  61   29   59 1

#	End of record

