#	Name: ASD03092865
#	Creating user name:	WinNT
#	Creation time:	15. 06. 2019 20:33

#	Modifying user name:	WinNT
#	Modification time:	15. 06. 2019 20:33

#	Program:	/corina/corina34_cracker 3.40 0067  02.08.2006

@<TRIPOS>MOLECULE
ASD03092865
  45   48    0    0    0
SMALL
NO_CHARGES


@<TRIPOS>ATOM
   1 Cl1           -0.0244     0.0174     0.0494 Cl      
   2 C2             1.0736     0.8582    -1.0000 C.ar    
   3 C3             1.2680     0.4099    -2.2992 C.ar    
   4 C4             2.1358     1.0655    -3.1454 C.ar    
   5 C5             2.8261     2.1873    -2.6991 C.ar    
   6 N6             3.7386     3.0337    -3.2961 N.pl3   
   7 H7             4.0561     2.9501    -4.2088 H       
   8 C8             4.1281     3.9973    -2.4280 C.2     
   9 C9             3.4920     3.8256    -1.2319 C.2     
  10 C10            3.6381     4.6580    -0.0310 C.2     
  11 O11            2.9383     4.4494     0.9430 O.2     
  12 C12            4.6326     5.7468    -0.0049 C.ar    
  13 C13            4.2312     7.0818    -0.1281 C.ar    
  14 C14            5.2032     8.0661    -0.0975 C.ar    
  15 C15            6.5311     7.7081     0.0522 C.ar    
  16 N16            6.8897     6.4441     0.1668 N.ar    
  17 C17            6.0009     5.4630     0.1500 C.ar    
  18 N18            6.4211     4.1520     0.2797 N.pl3   
  19 C19            7.8523     3.8428     0.3278 C.3     
  20 C20            8.0430     2.3318     0.4736 C.3     
  21 C21            9.5152     2.0137     0.5230 C.ar    
  22 C22           10.2073     1.7605    -0.6465 C.ar    
  23 C23           11.5578     1.4687    -0.6011 C.ar    
  24 C24           12.2163     1.4307     0.6137 C.ar    
  25 C25           11.5244     1.6849     1.7832 C.ar    
  26 C26           10.1748     1.9808     1.7374 C.ar    
  27 C27            2.6287     2.6399    -1.3847 C.ar    
  28 C28            1.7448     1.9722    -0.5412 C.ar    
  29 H29            0.7344    -0.4611    -2.6500 H       
  30 H30            2.2801     0.7082    -4.1544 H       
  31 H31            4.8357     4.7828    -2.6483 H       
  32 H32            3.1883     7.3374    -0.2444 H       
  33 H33            4.9273     9.1061    -0.1903 H       
  34 H34            7.2881     8.4780     0.0754 H       
  35 H35            5.7682     3.4370     0.3389 H       
  36 H36            8.3284     4.1821    -0.5921 H       
  37 H37            8.3051     4.3500     1.1797 H       
  38 H38            7.5669     1.9925     1.3935 H       
  39 H39            7.5902     1.8245    -0.3784 H       
  40 H40            9.6929     1.7902    -1.5956 H       
  41 H41           12.0983     1.2702    -1.5148 H       
  42 H42           13.2712     1.2021     0.6492 H       
  43 H43           12.0387     1.6549     2.7323 H       
  44 H44            9.6351     2.1831     2.6507 H       
  45 H45            1.5887     2.3224     0.4684 H       
@<TRIPOS>BOND
   1    1    2 1
   2    2   28 ar
   3    2    3 ar
   4    3    4 ar
   5    3   29 1
   6    4    5 ar
   7    4   30 1
   8    5   27 ar
   9    5    6 1
  10    6    7 1
  11    6    8 1
  12    8    9 2
  13    8   31 1
  14    9   10 1
  15    9   27 1
  16   10   11 2
  17   10   12 1
  18   12   17 ar
  19   12   13 ar
  20   13   14 ar
  21   13   32 1
  22   14   15 ar
  23   14   33 1
  24   15   16 ar
  25   15   34 1
  26   16   17 ar
  27   17   18 1
  28   18   19 1
  29   18   35 1
  30   19   20 1
  31   19   36 1
  32   19   37 1
  33   20   21 1
  34   20   38 1
  35   20   39 1
  36   21   26 ar
  37   21   22 ar
  38   22   23 ar
  39   22   40 1
  40   23   24 ar
  41   23   41 1
  42   24   25 ar
  43   24   42 1
  44   25   26 ar
  45   25   43 1
  46   26   44 1
  47   27   28 ar
  48   28   45 1

#	End of record

