#	Name: ASD00311519
#	Creating user name:	WinNT
#	Creation time:	15. 06. 2019 18:34

#	Modifying user name:	WinNT
#	Modification time:	15. 06. 2019 18:34

#	Program:	/corina/corina34_cracker 3.40 0067  02.08.2006

@<TRIPOS>MOLECULE
ASD00311519
  47   51    0    0    0
SMALL
NO_CHARGES


@<TRIPOS>ATOM
   1 C1            -0.0167     1.3778     0.0096 C.2     
   2 C2             0.0021    -0.0041     0.0020 C.2     
   3 C3             1.2589    -0.6766    -0.0131 C.2     
   4 C4             2.4316     0.0673    -0.0199 C.2     
   5 C5             2.3574     1.4753    -0.0117 C.2     
   6 N6             1.1648     2.0904     0.0022 N.am    
   7 C7            -1.3431    -0.5750     0.0118 C.2     
   8 C8            -2.3223     0.3256     0.0260 C.2     
   9 S9            -1.6794     1.9560     0.0358 S.3     
  10 O10            3.3822     2.1374    -0.0175 O.2     
  11 C11            3.7477    -0.6119    -0.0352 C.ar    
  12 C12            4.5939    -0.4744    -1.1354 C.ar    
  13 C13            5.8190    -1.1092    -1.1435 C.ar    
  14 C14            6.2086    -1.8808    -0.0633 C.ar    
  15 C15            5.3735    -2.0213     1.0307 C.ar    
  16 C16            4.1484    -1.3868     1.0531 C.ar    
  17 C17           -2.7010    -3.9683     0.9212 C.ar    
  18 C18           -2.4683    -2.5966     0.9337 C.ar    
  19 C19           -1.5955    -2.0356     0.0056 C.ar    
  20 C20           -0.9592    -2.8510    -0.9308 C.ar    
  21 C21           -1.1941    -4.2114    -0.9376 C.ar    
  22 C22           -2.0592    -4.7731    -0.0188 C.ar    
  23 C23           -3.6255    -4.5745     1.9114 C.ar    
  24 C24           -3.8589    -5.9474     1.8995 C.ar    
  25 C25           -4.7224    -6.5073     2.8264 C.ar    
  26 C26           -5.3526    -5.7005     3.7642 C.ar    
  27 C27           -5.1212    -4.3381     3.7763 C.ar    
  28 C28           -4.2578    -3.7725     2.8591 C.ar    
  29 O29           -4.9531    -7.8466     2.8178 O.3     
  30 O30            1.3089    -2.0291    -0.0204 O.3     
  31 H31            1.1326     3.0598     0.0077 H       
  32 H32           -3.3749     0.0838     0.0347 H       
  33 H33            4.2907     0.1274    -1.9794 H       
  34 H34            6.4749    -1.0038    -1.9950 H       
  35 H35            7.1684    -2.3757    -0.0742 H       
  36 H36            5.6830    -2.6253     1.8709 H       
  37 H37            3.4994    -1.4933     1.9097 H       
  38 H38           -2.9638    -1.9694     1.6601 H       
  39 H39           -0.2821    -2.4172    -1.6517 H       
  40 H40           -0.6997    -4.8389    -1.6644 H       
  41 H41           -2.2393    -5.8379    -0.0292 H       
  42 H42           -3.3683    -6.5738     1.1692 H       
  43 H43           -6.0259    -6.1388     4.4860 H       
  44 H44           -5.6138    -3.7146     4.5078 H       
  45 H45           -4.0759    -2.7080     2.8738 H       
  46 H46           -4.3445    -8.3542     3.3719 H       
  47 H47            2.2062    -2.3895    -0.0307 H       
@<TRIPOS>BOND
   1    1    2 2
   2    1    6 1
   3    1    9 1
   4    2    3 1
   5    2    7 1
   6    3    4 2
   7    3   30 1
   8    4    5 1
   9    4   11 1
  10    5    6 am
  11    5   10 2
  12    6   31 1
  13    7    8 2
  14    7   19 1
  15    8    9 1
  16    8   32 1
  17   11   12 ar
  18   11   16 ar
  19   12   13 ar
  20   12   33 1
  21   13   14 ar
  22   13   34 1
  23   14   15 ar
  24   14   35 1
  25   15   16 ar
  26   15   36 1
  27   16   37 1
  28   17   18 ar
  29   17   22 ar
  30   17   23 1
  31   18   19 ar
  32   18   38 1
  33   19   20 ar
  34   20   21 ar
  35   20   39 1
  36   21   22 ar
  37   21   40 1
  38   22   41 1
  39   23   24 ar
  40   23   28 ar
  41   24   25 ar
  42   24   42 1
  43   25   26 ar
  44   25   29 1
  45   26   27 ar
  46   26   43 1
  47   27   28 ar
  48   27   44 1
  49   28   45 1
  50   29   46 1
  51   30   47 1

#	End of record

