#	Name: ASD04880334
#	Creating user name:	WinNT
#	Creation time:	15. 06. 2019 20:53

#	Modifying user name:	WinNT
#	Modification time:	15. 06. 2019 20:53

#	Program:	/corina/corina34_cracker 3.40 0067  02.08.2006

@<TRIPOS>MOLECULE
ASD04880334
  36   39    0    0    0
SMALL
NO_CHARGES


@<TRIPOS>ATOM
   1 C1            -0.0144     1.2118     0.0087 C.2     
   2 O2             0.0578    -0.0018    -0.0140 O.2     
   3 C3             1.2187     2.0261    -0.0193 C.ar    
   4 C4             2.4678     1.4097     0.0724 C.ar    
   5 C5             3.6163     2.1772     0.0455 C.ar    
   6 C6             3.5287     3.5554    -0.0717 C.ar    
   7 C7             2.2932     4.1702    -0.1623 C.ar    
   8 C8             1.1391     3.4141    -0.1434 C.ar    
   9 F9             4.8266     1.5833     0.1341 F       
  10 N10           -1.2191     1.8144     0.0539 N.am    
  11 N11           -1.4356     3.1836     0.1955 N.2     
  12 C12           -2.6790     3.5210     0.2120 C.2     
  13 C13           -3.5393     2.2860     0.0679 C.3     
  14 C14           -2.5205     1.1346    -0.0447 C.3     
  15 C15           -4.1569     7.4913     0.6095 C.ar    
  16 C16           -2.7751     7.2721     0.6077 C.ar    
  17 C17           -2.0303     8.5133     0.7511 C.2     
  18 C18           -2.7731     9.5968     0.8547 C.2     
  19 S19           -4.4817     9.2116     0.7872 S.3     
  20 C20           -2.2941     5.9545     0.4751 C.ar    
  21 C21           -3.1849     4.8990     0.3501 C.ar    
  22 C22           -4.5660     5.1407     0.3543 C.ar    
  23 C23           -5.0382     6.4104     0.4867 C.ar    
  24 H24            2.5362     0.3358     0.1644 H       
  25 H25            4.4289     4.1517    -0.0919 H       
  26 H26            2.2316     5.2447    -0.2531 H       
  27 H27            0.1755     3.8959    -0.2196 H       
  28 H28           -4.1726     2.1566     0.9455 H       
  29 H29           -4.1450     2.3454    -0.8364 H       
  30 H30           -2.6165     0.6274    -1.0047 H       
  31 H31           -2.6484     0.4301     0.7770 H       
  32 H32           -0.9510     8.5444     0.7716 H       
  33 H33           -2.3788    10.5960     0.9674 H       
  34 H34           -1.2306     5.7663     0.4713 H       
  35 H35           -5.2572     4.3166     0.2564 H       
  36 H36           -6.1037     6.5868     0.4892 H       
@<TRIPOS>BOND
   1    1    2 2
   2    1    3 1
   3    1   10 am
   4    3    4 ar
   5    3    8 ar
   6    4    5 ar
   7    4   24 1
   8    5    6 ar
   9    5    9 1
  10    6    7 ar
  11    6   25 1
  12    7    8 ar
  13    7   26 1
  14    8   27 1
  15   10   11 1
  16   10   14 1
  17   11   12 2
  18   12   13 1
  19   12   21 1
  20   13   14 1
  21   13   28 1
  22   13   29 1
  23   14   30 1
  24   14   31 1
  25   15   16 ar
  26   15   19 1
  27   15   23 ar
  28   16   17 1
  29   16   20 ar
  30   17   18 2
  31   17   32 1
  32   18   19 1
  33   18   33 1
  34   20   21 ar
  35   20   34 1
  36   21   22 ar
  37   22   23 ar
  38   22   35 1
  39   23   36 1

#	End of record

