#	Name: ASD04590816
#	Creating user name:	WinNT
#	Creation time:	15. 06. 2019 20:51

#	Modifying user name:	WinNT
#	Modification time:	15. 06. 2019 20:51

#	Program:	/corina/corina34_cracker 3.40 0067  02.08.2006

@<TRIPOS>MOLECULE
ASD04590816
  66   71    0    0    0
SMALL
NO_CHARGES


@<TRIPOS>ATOM
   1 N1            -2.3535    -2.6672    -0.0377 N.ar    
   2 C2            -1.1911    -2.0278    -0.0603 C.ar    
   3 N3            -0.0330    -2.6668    -0.0974 N.ar    
   4 C4             0.0066    -3.9958    -0.1130 C.ar    
   5 C5            -1.2116    -4.7045    -0.0893 C.ar    
   6 C6            -2.4042    -3.9890    -0.0510 C.ar    
   7 N7             1.0359    -4.9036    -0.1497 N.pl3   
   8 C8             0.5408    -6.1963    -0.1511 C.ar    
   9 C9            -0.8635    -6.1309    -0.1141 C.ar    
  10 C10            1.1449    -7.4465    -0.1809 C.ar    
  11 N11            0.4154    -8.5436    -0.1750 N.ar    
  12 C12           -0.9052    -8.5167    -0.1405 C.ar    
  13 C13           -1.5905    -7.3208    -0.1080 C.ar    
  14 N14           -1.1898    -0.6428    -0.0451 N.pl3   
  15 C15           -2.3945     0.0568    -0.1226 C.ar    
  16 N16           -3.5288    -0.5960    -0.3142 N.ar    
  17 N17           -4.6595     0.0063    -0.3919 N.ar    
  18 C18           -4.7664     1.3208    -0.2856 C.ar    
  19 C19           -3.6240     2.0964    -0.0820 C.ar    
  20 C20           -2.4058     1.4463     0.0075 C.ar    
  21 N21           -6.0163     1.9293    -0.3772 N.3     
  22 C22           -6.0302     2.9462    -1.4365 C.3     
  23 C23           -7.3663     3.6920    -1.4120 C.3     
  24 C24           -8.5070     2.6926    -1.6232 C.3     
  25 C25           -8.4408     1.6171    -0.5353 C.3     
  26 C26           -7.0734     0.9315    -0.5851 C.3     
  27 C27            2.4580    -4.5534    -0.1831 C.3     
  28 C28            2.7643    -3.7117    -1.4342 C.3     
  29 C29            3.2972    -2.3538    -0.9321 C.3     
  30 C30            3.8451    -2.6608     0.4837 C.3     
  31 C31            2.8154    -3.6777     1.0356 C.3     
  32 O32           -9.7602     3.3747    -1.5447 O.3     
  33 N33           -9.4969     0.6221    -0.7643 N.3     
  34 C34           -9.2612    -0.1184    -2.0109 C.3     
  35 C35           -9.6139    -0.2939     0.3781 C.3     
  36 H36           -3.3537    -4.5032    -0.0325 H       
  37 H37            2.2220    -7.5201    -0.2096 H       
  38 H38           -1.4561    -9.4456    -0.1372 H       
  39 H39           -2.6700    -7.3058    -0.0799 H       
  40 H40           -0.3514    -0.1593     0.0195 H       
  41 H41           -3.6893     3.1708     0.0070 H       
  42 H42           -1.4908     1.9980     0.1645 H       
  43 H43           -5.2168     3.6530    -1.2721 H       
  44 H44           -5.9014     2.4634    -2.4051 H       
  45 H45           -7.4895     4.1865    -0.4485 H       
  46 H46           -7.3824     4.4361    -2.2084 H       
  47 H47           -8.4058     2.2261    -2.6031 H       
  48 H48           -8.5808     2.0790     0.4420 H       
  49 H49           -6.9398     0.4581    -1.5578 H       
  50 H50           -7.0178     0.1750     0.1976 H       
  51 H51            3.0652    -5.4587    -0.1842 H       
  52 H52            3.5208    -4.2079    -2.0421 H       
  53 H53            1.8549    -3.5637    -2.0165 H       
  54 H54            4.0961    -1.9941    -1.5806 H       
  55 H55            2.4899    -1.6234    -0.8787 H       
  56 H56            4.8371    -3.1086     0.4253 H       
  57 H57            3.8627    -1.7585     1.0951 H       
  58 H58            1.9303    -3.1611     1.4068 H       
  59 H59            3.2626    -4.2842     1.8232 H       
  60 H60           -9.8691     4.0744    -2.2032 H       
  61 H61           -8.3025    -0.6337    -1.9517 H       
  62 H62          -10.0577    -0.8483    -2.1560 H       
  63 H63           -9.2486     0.5773    -2.8499 H       
  64 H64           -9.9386     0.2619     1.2578 H       
  65 H65          -10.3442    -1.0698     0.1485 H       
  66 H66           -8.6455    -0.7536     0.5759 H       
@<TRIPOS>BOND
   1    1    2 ar
   2    1    6 ar
   3    2    3 ar
   4    2   14 1
   5    3    4 ar
   6    4    5 ar
   7    4    7 1
   8    5    6 ar
   9    5    9 1
  10    6   36 1
  11    7    8 1
  12    7   27 1
  13    8    9 ar
  14    8   10 ar
  15    9   13 ar
  16   10   11 ar
  17   10   37 1
  18   11   12 ar
  19   12   13 ar
  20   12   38 1
  21   13   39 1
  22   14   15 1
  23   14   40 1
  24   15   16 ar
  25   15   20 ar
  26   16   17 ar
  27   17   18 ar
  28   18   19 ar
  29   18   21 1
  30   19   20 ar
  31   19   41 1
  32   20   42 1
  33   21   22 1
  34   21   26 1
  35   22   23 1
  36   22   43 1
  37   22   44 1
  38   23   24 1
  39   23   45 1
  40   23   46 1
  41   24   25 1
  42   24   32 1
  43   24   47 1
  44   25   26 1
  45   25   33 1
  46   25   48 1
  47   26   49 1
  48   26   50 1
  49   27   28 1
  50   27   31 1
  51   27   51 1
  52   28   29 1
  53   28   52 1
  54   28   53 1
  55   29   30 1
  56   29   54 1
  57   29   55 1
  58   30   31 1
  59   30   56 1
  60   30   57 1
  61   31   58 1
  62   31   59 1
  63   32   60 1
  64   33   34 1
  65   33   35 1
  66   34   61 1
  67   34   62 1
  68   34   63 1
  69   35   64 1
  70   35   65 1
  71   35   66 1

#	End of record

