#	Name: ASD01884270
#	Creating user name:	WinNT
#	Creation time:	15. 06. 2019 19:47

#	Modifying user name:	WinNT
#	Modification time:	15. 06. 2019 19:47

#	Program:	/corina/corina34_cracker 3.40 0067  02.08.2006

@<TRIPOS>MOLECULE
ASD01884270
  39   42    0    0    0
SMALL
NO_CHARGES


@<TRIPOS>ATOM
   1 C1            -0.6553     1.4695    -1.9509 C.ar    
   2 C2            -0.6674     0.0772    -2.0547 C.ar    
   3 C3            -1.6346    -0.6638    -1.4234 C.ar    
   4 C4            -2.6355    -0.0428    -0.6581 C.ar    
   5 C5            -2.6107     1.3510    -0.5632 C.ar    
   6 C6            -1.6376     2.1028    -1.1906 C.ar    
   7 N7            -3.6714    -0.6445     0.0335 N.am    
   8 C8            -4.5273     0.1293     0.7076 C.2     
   9 S9            -3.9864     1.7972     0.4558 S.3     
  10 O10           -5.4852    -0.2379     1.3624 O.2     
  11 C11           -3.8205    -2.0373     0.0270 C.ar    
  12 C12           -3.1998    -2.8079     1.0009 C.ar    
  13 C13           -3.3492    -4.1811     0.9920 C.ar    
  14 C14           -4.1159    -4.7883     0.0147 C.ar    
  15 C15           -4.7351    -4.0234    -0.9571 C.ar    
  16 C16           -4.5942    -2.6497    -0.9503 C.ar    
  17 C17            0.3915     2.2635    -2.6348 C.ar    
  18 C18            1.7487     1.9240    -2.4848 C.ar    
  19 C19            2.7240     2.6815    -3.1354 C.ar    
  20 C20            2.3539     3.7544    -3.9188 C.ar    
  21 C21            1.0171     4.0876    -4.0657 C.ar    
  22 C22            0.0383     3.3470    -3.4349 C.ar    
  23 C23           -5.5690    -4.6893    -2.0212 C.3     
  24 F24           -5.5662    -6.0734    -1.8176 F       
  25 F25           -6.8817    -4.2104    -1.9525 F       
  26 F26           -5.0332    -4.4022    -3.2812 F       
  27 C27            2.1269     0.8091    -1.6696 C.1     
  28 N28            2.4270    -0.0754    -1.0229 N.1     
  29 H29            0.0922    -0.4217    -2.6382 H       
  30 H30           -1.6264    -1.7398    -1.5167 H       
  31 H31           -1.6424     3.1789    -1.1000 H       
  32 H32           -2.6006    -2.3342     1.7644 H       
  33 H33           -2.8664    -4.7812     1.7491 H       
  34 H34           -4.2312    -5.8621     0.0099 H       
  35 H35           -5.0783    -2.0529    -1.7092 H       
  36 H36            3.7680     2.4278    -3.0251 H       
  37 H37            3.1108     4.3388    -4.4206 H       
  38 H38            0.7390     4.9302    -4.6814 H       
  39 H39           -1.0015     3.6131    -3.5548 H       
@<TRIPOS>BOND
   1    1    2 ar
   2    1   17 1
   3    1    6 ar
   4    2    3 ar
   5    2   29 1
   6    3    4 ar
   7    3   30 1
   8    4    5 ar
   9    4    7 1
  10    5    6 ar
  11    5    9 1
  12    6   31 1
  13    7    8 am
  14    7   11 1
  15    8    9 1
  16    8   10 2
  17   11   12 ar
  18   11   16 ar
  19   12   13 ar
  20   12   32 1
  21   13   14 ar
  22   13   33 1
  23   14   15 ar
  24   14   34 1
  25   15   16 ar
  26   15   23 1
  27   16   35 1
  28   17   18 ar
  29   17   22 ar
  30   18   19 ar
  31   18   27 1
  32   19   20 ar
  33   19   36 1
  34   20   21 ar
  35   20   37 1
  36   21   22 ar
  37   21   38 1
  38   22   39 1
  39   23   24 1
  40   23   25 1
  41   23   26 1
  42   27   28 3

#	End of record

