#	Name: ASD01916302
#	Creating user name:	WinNT
#	Creation time:	15. 06. 2019 20:07

#	Modifying user name:	WinNT
#	Modification time:	15. 06. 2019 20:07

#	Program:	/corina/corina34_cracker 3.40 0067  02.08.2006

@<TRIPOS>MOLECULE
ASD01916302
  43   44    0    0    0
SMALL
NO_CHARGES


@<TRIPOS>ATOM
   1 C1            -0.0167     1.3816     0.0096 C.ar    
   2 C2             0.0021    -0.0041     0.0020 C.ar    
   3 C3             1.2064    -0.6809    -0.0127 C.ar    
   4 C4             2.4058     0.0359    -0.0204 C.ar    
   5 C5             2.3775     1.4336    -0.0130 C.ar    
   6 C6             1.1682     2.0962     0.0022 C.ar    
   7 F7            -1.1593    -0.6943     0.0094 F       
   8 C8             3.6584    -0.6581    -0.0351 C.1     
   9 C9             4.6852    -1.2270    -0.0473 C.1     
  10 C10            5.9378    -1.9210    -0.0621 C.ar    
  11 N11            7.0739    -1.2271    -0.0692 N.ar    
  12 C12            8.2453    -1.8239    -0.0824 C.ar    
  13 C13            8.3331    -3.2184    -0.0893 C.ar    
  14 C14            7.1534    -3.9776    -0.0820 C.ar    
  15 C15            5.9528    -3.3202    -0.0630 C.ar    
  16 C16            9.6504    -3.8843    -0.1045 C.2     
  17 O17            9.7179    -5.0982    -0.1105 O.2     
  18 N18           10.7783    -3.1466    -0.1119 N.am    
  19 C19           12.0857    -3.8075    -0.1270 C.3     
  20 C20           13.1249    -2.8681    -0.7423 C.3     
  21 O21           13.2894    -1.7239     0.0978 O.3     
  22 C22           14.4614    -3.6014    -0.8728 C.3     
  23 C23           12.6515    -2.4205    -2.1267 C.3     
  24 C24           12.4976    -4.1560     1.3047 C.3     
  25 H25           -0.9607     1.9063     0.0170 H       
  26 H26            1.2208    -1.7608    -0.0179 H       
  27 H27            3.3010     1.9934    -0.0185 H       
  28 H28            1.1459     3.1759     0.0075 H       
  29 H29            9.1479    -1.2309    -0.0883 H       
  30 H30            7.1916    -5.0569    -0.0874 H       
  31 H31            5.0266    -3.8757    -0.0566 H       
  32 H32           10.7245    -2.1781    -0.1072 H       
  33 H33           12.0247    -4.7201    -0.7199 H       
  34 H34           13.9351    -1.0838    -0.2314 H       
  35 H35           14.3359    -4.4742    -1.5136 H       
  36 H36           15.2017    -2.9322    -1.3111 H       
  37 H37           14.7986    -3.9203     0.1135 H       
  38 H38           11.6994    -1.8981    -2.0338 H       
  39 H39           13.3919    -1.7513    -2.5651 H       
  40 H40           12.5261    -3.2933    -2.7675 H       
  41 H41           13.4703    -4.6477     1.2934 H       
  42 H42           12.5587    -3.2434     1.8975 H       
  43 H43           11.7573    -4.8252     1.7430 H       
@<TRIPOS>BOND
   1    1    2 ar
   2    1    6 ar
   3    1   25 1
   4    2    3 ar
   5    2    7 1
   6    3    4 ar
   7    3   26 1
   8    4    5 ar
   9    4    8 1
  10    5    6 ar
  11    5   27 1
  12    6   28 1
  13    8    9 3
  14    9   10 1
  15   10   11 ar
  16   10   15 ar
  17   11   12 ar
  18   12   13 ar
  19   12   29 1
  20   13   14 ar
  21   13   16 1
  22   14   15 ar
  23   14   30 1
  24   15   31 1
  25   16   17 2
  26   16   18 am
  27   18   19 1
  28   18   32 1
  29   19   20 1
  30   19   24 1
  31   19   33 1
  32   20   21 1
  33   20   22 1
  34   20   23 1
  35   21   34 1
  36   22   35 1
  37   22   36 1
  38   22   37 1
  39   23   38 1
  40   23   39 1
  41   23   40 1
  42   24   41 1
  43   24   42 1
  44   24   43 1

#	End of record

