#	Name: ASD01208500
#	Creating user name:	WinNT
#	Creation time:	15. 06. 2019 19:09

#	Modifying user name:	WinNT
#	Modification time:	15. 06. 2019 19:09

#	Program:	/corina/corina34_cracker 3.40 0067  02.08.2006

@<TRIPOS>MOLECULE
ASD01208500
  24   25    0    0    0
SMALL
NO_CHARGES


@<TRIPOS>ATOM
   1 N1            -0.0179     1.4664     0.0101 N.am    
   2 C2             0.0021    -0.0041     0.0020 C.3     
   3 C3             1.3732     0.0647     0.6886 C.3     
   4 C4             1.4523     1.4322    -0.0041 C.3     
   5 S5            -1.1831     2.6431     0.0224 S.o2    
   6 O6            -0.5802     3.8105    -0.5188 O.2     
   7 O7            -2.3562     2.0518    -0.5194 O.2     
   8 C8            -1.5416     3.0045     1.7092 C.ar    
   9 C9            -0.8311     3.9890     2.3706 C.ar    
  10 C10           -1.1120     4.2734     3.6953 C.ar    
  11 C11           -2.1067     3.5701     4.3581 C.ar    
  12 C12           -2.8160     2.5854     3.6934 C.ar    
  13 C13           -2.5367     2.3075     2.3681 C.ar    
  14 F14           -2.3825     3.8457     5.6516 F       
  15 F15           -0.4178     5.2350     4.3424 F       
  16 H16           -0.7729    -0.4521     0.6240 H       
  17 H17            0.0392    -0.4322    -0.9997 H       
  18 H18            1.3262     0.1168     1.7764 H       
  19 H19            2.0944    -0.6651     0.3207 H       
  20 H20            1.8758     1.3866    -1.0075 H       
  21 H21            1.9105     2.2053     0.6126 H       
  22 H22           -0.0565     4.5357     1.8534 H       
  23 H23           -3.5906     2.0367     4.2086 H       
  24 H24           -3.0937     1.5418     1.8485 H       
@<TRIPOS>BOND
   1    1    2 1
   2    1    4 1
   3    1    5 am
   4    2    3 1
   5    2   16 1
   6    2   17 1
   7    3    4 1
   8    3   18 1
   9    3   19 1
  10    4   20 1
  11    4   21 1
  12    5    6 2
  13    5    7 2
  14    5    8 1
  15    8    9 ar
  16    8   13 ar
  17    9   10 ar
  18    9   22 1
  19   10   11 ar
  20   10   15 1
  21   11   12 ar
  22   11   14 1
  23   12   13 ar
  24   12   23 1
  25   13   24 1

#	End of record

