#	Name: ASD07301314
#	Creating user name:	WinNT
#	Creation time:	15. 06. 2019 21:11

#	Modifying user name:	WinNT
#	Modification time:	15. 06. 2019 21:11

#	Program:	/corina/corina34_cracker 3.40 0067  02.08.2006

@<TRIPOS>MOLECULE
ASD07301314
  26   26    0    0    0
SMALL
NO_CHARGES


@<TRIPOS>ATOM
   1 C1             1.2969     0.3936    -0.6682 C.3     
   2 C2             0.0071    -0.0049     0.0015 C.2     
   3 C3             0.0342    -0.8360     1.2061 C.2     
   4 C4            -0.1096    -2.2885     1.0964 C.2     
   5 C5            -0.0816    -3.1443     2.3366 C.3     
   6 O6            -1.0542     0.3634    -0.4578 O.2     
   7 O7            -0.2513    -2.8037     0.0068 O.2     
   8 N8             0.1888    -0.2742     2.3945 N.2     
   9 N9             0.4115     0.9932     2.4846 N.pl3   
  10 C10            0.7105     0.7838     4.8751 C.ar    
  11 C11            0.6802     1.5675     3.7272 C.ar    
  12 C12            0.9229     2.9357     3.8366 C.ar    
  13 C13            1.1853     3.4588     5.0920 C.ar    
  14 C14            1.1980     2.6143     6.1866 C.ar    
  15 N15            0.9648     1.3232     6.0500 N.ar    
  16 H16            1.6128    -0.3977    -1.3481 H       
  17 H17            1.1452     1.3156    -1.2294 H       
  18 H18            2.0656     0.5510     0.0883 H       
  19 H19           -1.0944    -3.2563     2.7237 H       
  20 H20            0.3244    -4.1257     2.0918 H       
  21 H21            0.5454    -2.6697     3.0914 H       
  22 H22            0.3922     1.5469     1.6884 H       
  23 H23            0.5196    -0.2768     4.8036 H       
  24 H24            0.9070     3.5721     2.9642 H       
  25 H25            1.3782     4.5144     5.2144 H       
  26 H26            1.4021     3.0174     7.1675 H       
@<TRIPOS>BOND
   1    1    2 1
   2    1   16 1
   3    1   17 1
   4    1   18 1
   5    2    3 1
   6    2    6 2
   7    3    4 1
   8    3    8 2
   9    4    5 1
  10    4    7 2
  11    5   19 1
  12    5   20 1
  13    5   21 1
  14    8    9 1
  15    9   11 1
  16    9   22 1
  17   10   11 ar
  18   10   15 ar
  19   10   23 1
  20   11   12 ar
  21   12   13 ar
  22   12   24 1
  23   13   14 ar
  24   13   25 1
  25   14   15 ar
  26   14   26 1

#	End of record

