#	Name: ASD01230757
#	Creating user name:	WinNT
#	Creation time:	15. 06. 2019 19:15

#	Modifying user name:	WinNT
#	Modification time:	15. 06. 2019 19:15

#	Program:	/corina/corina34_cracker 3.40 0067  02.08.2006

@<TRIPOS>MOLECULE
ASD01230757
  30   32    0    0    0
SMALL
NO_CHARGES


@<TRIPOS>ATOM
   1 C1            -0.0166     1.3739     0.0096 C.2     
   2 C2             0.0021    -0.0041     0.0020 C.2     
   3 C3            -1.2143    -0.7000     0.0083 C.2     
   4 C4            -2.3849    -0.0390     0.0105 C.2     
   5 N5            -2.4623     1.3311     0.0013 N.pl3   
   6 C6            -1.3175     2.0759     0.0320 C.2     
   7 C7            -3.8100     1.9042    -0.0487 C.3     
   8 C8            -3.8783     3.1898     0.7808 C.3     
   9 S9            -2.6223     4.3260     0.1129 S.o2    
  10 N10           -1.2621     3.3847     0.0820 N.am    
  11 C11            1.2496     2.1411     0.0016 C.ar    
  12 C12            1.9994     2.2434    -1.1704 C.ar    
  13 O13           -2.8873     4.6254    -1.2507 O.2     
  14 O14           -2.3216     5.3519     1.0490 O.2     
  15 C15            1.6954     2.7701     1.1654 C.ar    
  16 C16            2.8775     3.4842     1.1508 C.ar    
  17 C17            3.6185     3.5764    -0.0135 C.ar    
  18 C18            3.1784     2.9597    -1.1715 C.ar    
  19 Cl19           0.7660     2.6556     2.6272 Cl      
  20 H20            0.9399    -0.5395    -0.0090 H       
  21 H21           -1.2113    -1.7800     0.0110 H       
  22 H22           -3.3018    -0.6096     0.0196 H       
  23 H23           -4.0665     2.1300    -1.0838 H       
  24 H24           -4.5230     1.1817     0.3484 H       
  25 H25           -4.8684     3.6369     0.6920 H       
  26 H26           -3.6616     2.9694     1.8260 H       
  27 H27            1.6577     1.7625    -2.0750 H       
  28 H28            3.2238     3.9718     2.0501 H       
  29 H29            4.5420     4.1362    -0.0201 H       
  30 H30            3.7618     3.0356    -2.0773 H       
@<TRIPOS>BOND
   1    1    2 2
   2    1   11 1
   3    1    6 1
   4    2    3 1
   5    2   20 1
   6    3    4 2
   7    3   21 1
   8    4    5 1
   9    4   22 1
  10    5    6 1
  11    5    7 1
  12    6   10 2
  13    7    8 1
  14    7   23 1
  15    7   24 1
  16    8    9 1
  17    8   25 1
  18    8   26 1
  19    9   10 am
  20    9   13 2
  21    9   14 2
  22   11   12 ar
  23   11   15 ar
  24   12   18 ar
  25   12   27 1
  26   15   16 ar
  27   15   19 1
  28   16   17 ar
  29   16   28 1
  30   17   18 ar
  31   17   29 1
  32   18   30 1

#	End of record

