#	Name: ASD07030064
#	Creating user name:	WinNT
#	Creation time:	15. 06. 2019 21:08

#	Modifying user name:	WinNT
#	Modification time:	15. 06. 2019 21:08

#	Program:	/corina/corina34_cracker 3.40 0067  02.08.2006

@<TRIPOS>MOLECULE
ASD07030064
  42   42    0    0    0
SMALL
NO_CHARGES


@<TRIPOS>ATOM
   1 C1            -0.0187     1.5258     0.0104 C.3     
   2 C2             0.0021    -0.0041     0.0020 C.3     
   3 C3             1.3165     0.7789    -0.0063 C.3     
   4 N4            -0.4313     2.2053    -1.2248 N.3     
   5 C5            -0.3780    -0.7121     1.2769 C.ar    
   6 C6            -1.4563    -1.5770     1.2921 C.ar    
   7 C7            -1.8049    -2.2265     2.4615 C.ar    
   8 C8            -1.0750    -2.0114     3.6156 C.ar    
   9 C9             0.0038    -1.1472     3.6001 C.ar    
  10 C10            0.3551    -0.5011     2.4297 C.ar    
  11 C11           -0.9675     3.5422    -0.9364 C.3     
  12 C12           -1.3855     4.2172    -2.2442 C.3     
  13 S13           -2.0477     5.8680    -1.8880 S.3     
  14 C14           -2.4807     6.4977    -3.5331 C.3     
  15 C15           -3.0634     7.9064    -3.4029 C.3     
  16 C16           -3.3127     8.4861    -4.7967 C.3     
  17 C17           -4.3841     7.8429    -2.6332 C.3     
  18 H18           -0.3072     2.0201     0.9381 H       
  19 H19           -0.2904    -0.5063    -0.9201 H       
  20 H20            1.8888     0.7918    -0.9339 H       
  21 H21            1.9064     0.7818     0.9103 H       
  22 H22            0.3326     2.2562    -1.8820 H       
  23 H23           -2.0265    -1.7450     0.3904 H       
  24 H24           -2.6478    -2.9017     2.4735 H       
  25 H25           -1.3479    -2.5183     4.5294 H       
  26 H26            0.5738    -0.9789     4.5019 H       
  27 H27            1.2002     0.1713     2.4167 H       
  28 H28           -1.8336     3.4526    -0.2807 H       
  29 H29           -0.2014     4.1429    -0.4462 H       
  30 H30           -0.5194     4.3068    -2.8999 H       
  31 H31           -2.1516     3.6164    -2.7344 H       
  32 H32           -1.5872     6.5303    -4.1565 H       
  33 H33           -3.2194     5.8399    -3.9911 H       
  34 H34           -2.3598     8.5423    -2.8655 H       
  35 H35           -4.0162     7.8502    -5.3341 H       
  36 H36           -3.7278     9.4897    -4.7039 H       
  37 H37           -2.3717     8.5313    -5.3450 H       
  38 H38           -4.7992     8.8465    -2.5404 H       
  39 H39           -5.0876     7.2070    -3.1706 H       
  40 H40           -4.2065     7.4300    -1.6402 H       
  41 Cl41           6.9064    14.4897     9.5294 Cl      
  42 H42            6.9064    15.8597     9.5294 H       
@<TRIPOS>BOND
   1    1    2 1
   2    1    3 1
   3    1    4 1
   4    1   18 1
   5    2    3 1
   6    2    5 1
   7    2   19 1
   8    3   20 1
   9    3   21 1
  10    4   11 1
  11    4   22 1
  12    5    6 ar
  13    5   10 ar
  14    6    7 ar
  15    6   23 1
  16    7    8 ar
  17    7   24 1
  18    8    9 ar
  19    8   25 1
  20    9   10 ar
  21    9   26 1
  22   10   27 1
  23   11   12 1
  24   11   28 1
  25   11   29 1
  26   12   13 1
  27   12   30 1
  28   12   31 1
  29   13   14 1
  30   14   15 1
  31   14   32 1
  32   14   33 1
  33   15   16 1
  34   15   17 1
  35   15   34 1
  36   16   35 1
  37   16   36 1
  38   16   37 1
  39   17   38 1
  40   17   39 1
  41   17   40 1
  42   41   42 1

#	End of record

