#	Name: ASD00310205
#	Creating user name:	WinNT
#	Creation time:	15. 06. 2019 18:34

#	Modifying user name:	WinNT
#	Modification time:	15. 06. 2019 18:34

#	Program:	/corina/corina34_cracker 3.40 0067  02.08.2006

@<TRIPOS>MOLECULE
ASD00310205
  56   59    0    0    0
SMALL
NO_CHARGES


@<TRIPOS>ATOM
   1 C1            -0.0478     1.4927     0.0691 C.3     
   2 C2            -0.0264    -0.0176     0.0681 C.2     
   3 C3             1.2502    -0.4148     0.0657 C.2     
   4 C4             2.1612     0.7528     0.0650 C.ar    
   5 C5             3.5522     0.8431     0.0624 C.ar    
   6 C6             4.1644     2.0915     0.0618 C.ar    
   7 C7             3.3884     3.2499     0.0638 C.ar    
   8 C8             2.0097     3.1571     0.0664 C.ar    
   9 C9             1.3997     1.9216     0.0670 C.ar    
  10 C10            1.6913    -1.8242     0.0649 C.2     
  11 C11            1.4602    -2.5923     1.1216 C.2     
  12 C12            2.4040    -2.3900    -1.1364 C.3     
  13 C13            5.6451     2.1910     0.0595 C.ar    
  14 C14            6.3068     2.7464    -1.0337 C.ar    
  15 C15            7.6841     2.8365    -1.0306 C.ar    
  16 C16            8.4073     2.3766     0.0551 C.ar    
  17 C17            7.7555     1.8243     1.1430 C.ar    
  18 C18            6.3782     1.7346     1.1529 C.ar    
  19 C19            9.9110     2.4772     0.0526 C.3     
  20 C20           10.3666     3.3366     1.2335 C.3     
  21 C21           11.8932     3.4387     1.2309 C.3     
  22 C22           12.4982     2.0389     1.3554 C.3     
  23 C23           12.0425     1.1795     0.1745 C.3     
  24 C24           10.5159     1.0774     0.1771 C.3     
  25 C25            4.0530     4.6025     0.0636 C.3     
  26 C26            4.3903    -0.4093     0.0607 C.3     
  27 H27           -0.5513     1.8627    -0.8241 H       
  28 H28           -0.5484     1.8616     0.9643 H       
  29 H29           -0.8916    -0.6640     0.0694 H       
  30 H30            1.4091     4.0547     0.0683 H       
  31 H31            1.0251    -2.1666     2.0137 H       
  32 H32            1.7072    -3.6432     1.0898 H       
  33 H33            3.4783    -2.2442    -1.0236 H       
  34 H34            2.1885    -3.4554    -1.2183 H       
  35 H35            2.0606    -1.8797    -2.0363 H       
  36 H36            5.7431     3.1054    -1.8821 H       
  37 H37            8.1981     3.2665    -1.8775 H       
  38 H38            8.3250     1.4668     1.9881 H       
  39 H39            5.8700     1.3077     2.0048 H       
  40 H40           10.2429     2.9348    -0.8793 H       
  41 H41            9.9356     4.3338     1.1448 H       
  42 H42           10.0347     2.8789     2.1654 H       
  43 H43           12.2252     3.8964     0.2990 H       
  44 H44           12.2178     4.0510     2.0722 H       
  45 H45           13.5858     2.1117     1.3536 H       
  46 H46           12.1662     1.5812     2.2873 H       
  47 H47           12.3745     1.6372    -0.7574 H       
  48 H48           12.4735     0.1822     0.2632 H       
  49 H49           10.1840     0.6197     1.1090 H       
  50 H50           10.1913     0.4651    -0.6642 H       
  51 H51            4.2116     4.9293    -0.9641 H       
  52 H52            3.4153     5.3207     0.5790 H       
  53 H53            5.0128     4.5358     0.5759 H       
  54 H54            4.5398    -0.7451    -0.9655 H       
  55 H55            5.3569    -0.2002     0.5190 H       
  56 H56            3.8805    -1.1885     0.6273 H       
@<TRIPOS>BOND
   1    1    2 1
   2    1    9 1
   3    1   27 1
   4    1   28 1
   5    2    3 2
   6    2   29 1
   7    3    4 1
   8    3   10 1
   9    4    5 ar
  10    4    9 ar
  11    5    6 ar
  12    5   26 1
  13    6    7 ar
  14    6   13 1
  15    7    8 ar
  16    7   25 1
  17    8    9 ar
  18    8   30 1
  19   10   11 2
  20   10   12 1
  21   11   31 1
  22   11   32 1
  23   12   33 1
  24   12   34 1
  25   12   35 1
  26   13   14 ar
  27   13   18 ar
  28   14   15 ar
  29   14   36 1
  30   15   16 ar
  31   15   37 1
  32   16   17 ar
  33   16   19 1
  34   17   18 ar
  35   17   38 1
  36   18   39 1
  37   19   20 1
  38   19   24 1
  39   19   40 1
  40   20   21 1
  41   20   41 1
  42   20   42 1
  43   21   22 1
  44   21   43 1
  45   21   44 1
  46   22   23 1
  47   22   45 1
  48   22   46 1
  49   23   24 1
  50   23   47 1
  51   23   48 1
  52   24   49 1
  53   24   50 1
  54   25   51 1
  55   25   52 1
  56   25   53 1
  57   26   54 1
  58   26   55 1
  59   26   56 1

#	End of record

