#	Name: ASD01810715
#	Creating user name:	WinNT
#	Creation time:	15. 06. 2019 19:25

#	Modifying user name:	WinNT
#	Modification time:	15. 06. 2019 19:25

#	Program:	/corina/corina34_cracker 3.40 0067  02.08.2006

@<TRIPOS>MOLECULE
ASD01810715
  23   23    0    0    0
SMALL
NO_CHARGES


@<TRIPOS>ATOM
   1 N1            -0.0176     1.4498     0.0100 N.3     
   2 N2             0.0021    -0.0041     0.0020 N.3     
   3 C3             1.3511     3.3489    -0.7144 C.3     
   4 C4             1.3465     1.9948    -0.0001 C.3     
   5 C5             1.8326     2.1844     1.4401 C.3     
   6 C6             3.2238     2.8250     1.4175 C.3     
   7 C7             3.1559     4.1470     0.6485 C.3     
   8 O8             2.6673     3.9037    -0.6722 O.3     
   9 C9             0.9239     3.1588    -2.1712 C.3     
  10 H10           -0.5561     1.8084    -0.7643 H       
  11 H11           -0.9349    -0.3784     0.0090 H       
  12 H12            0.5256    -0.3543    -0.7863 H       
  13 H13            0.6556     4.0248    -0.2167 H       
  14 H14            2.0112     1.3058    -0.5212 H       
  15 H15            1.1407     2.8341     1.9760 H       
  16 H16            1.8852     1.2160     1.9376 H       
  17 H17            3.5543     3.0143     2.4388 H       
  18 H18            3.9265     2.1528     0.9250 H       
  19 H19            2.4841     4.8333     1.1640 H       
  20 H20            4.1518     4.5865     0.5924 H       
  21 H21           -0.0797     2.7346    -2.2031 H       
  22 H22            0.9272     4.1229    -2.6796 H       
  23 H23            1.6199     2.4833    -2.6686 H       
@<TRIPOS>BOND
   1    1    2 1
   2    1    4 1
   3    1   10 1
   4    2   11 1
   5    2   12 1
   6    3    4 1
   7    3    8 1
   8    3    9 1
   9    3   13 1
  10    4    5 1
  11    4   14 1
  12    5    6 1
  13    5   15 1
  14    5   16 1
  15    6    7 1
  16    6   17 1
  17    6   18 1
  18    7    8 1
  19    7   19 1
  20    7   20 1
  21    9   21 1
  22    9   22 1
  23    9   23 1

#	End of record

