#	Name: ASD02508183
#	Creating user name:	WinNT
#	Creation time:	15. 06. 2019 20:23

#	Modifying user name:	WinNT
#	Modification time:	15. 06. 2019 20:23

#	Program:	/corina/corina34_cracker 3.40 0067  02.08.2006

@<TRIPOS>MOLECULE
ASD02508183
  39   42    0    0    0
SMALL
NO_CHARGES


@<TRIPOS>ATOM
   1 C1             0.2737     0.6094    -0.3427 C.ar    
   2 C2             0.0244    -0.7492    -0.5398 C.ar    
   3 C3            -1.2515    -1.2735    -0.4346 C.ar    
   4 C4            -2.3135    -0.4452    -0.1279 C.ar    
   5 C5            -2.0872     0.9060     0.0714 C.ar    
   6 C6            -0.8199     1.4305    -0.0272 C.ar    
   7 S7            -3.9426    -1.1026     0.0079 S.o2    
   8 N8            -4.2119    -1.4180     1.6112 N.am    
   9 C9            -3.4101    -2.3409     2.2854 C.ar    
  10 N10            1.6004     0.9749    -0.4829 N.am    
  11 C11            2.4968     0.0303    -0.7839 C.2     
  12 S12            1.5898    -1.4864    -0.9075 S.3     
  13 O13           -4.8304    -0.0520    -0.3490 O.2     
  14 O14           -3.9235    -2.3615    -0.6509 O.2     
  15 C15            2.0145     2.3689    -0.3054 C.3     
  16 O16            3.6941     0.1817    -0.9419 O.2     
  17 C17           -2.9018    -2.0245     3.5263 C.ar    
  18 C18           -3.1353    -3.5808     1.6961 C.ar    
  19 C19           -2.3586    -4.4987     2.3301 C.ar    
  20 C20           -1.8194    -4.2066     3.5950 C.ar    
  21 C21           -2.0963    -2.9553     4.2013 C.ar    
  22 C22           -1.0126    -5.1361     4.2734 C.ar    
  23 C23           -0.5055    -4.8224     5.4968 C.ar    
  24 C24           -0.7739    -3.5905     6.0909 C.ar    
  25 C25           -1.5546    -2.6672     5.4664 C.ar    
  26 H26           -1.4170    -2.3290    -0.5924 H       
  27 H27           -2.9159     1.5558     0.3113 H       
  28 H28           -0.6655     2.4874     0.1324 H       
  29 H29           -4.9267    -0.9615     2.0819 H       
  30 H30            2.2706     2.5416     0.7399 H       
  31 H31            2.8837     2.5722    -0.9308 H       
  32 H32            1.1972     3.0302    -0.5933 H       
  33 H33           -3.1212    -1.0674     3.9762 H       
  34 H34           -3.5466    -3.8114     0.7245 H       
  35 H35           -2.1563    -5.4511     1.8629 H       
  36 H36           -0.7964    -6.0951     3.8262 H       
  37 H37            0.1141    -5.5391     6.0154 H       
  38 H38           -0.3593    -3.3668     7.0627 H       
  39 H39           -1.7540    -1.7165     5.9385 H       
@<TRIPOS>BOND
   1    1    2 ar
   2    1   10 1
   3    1    6 ar
   4    2    3 ar
   5    2   12 1
   6    3    4 ar
   7    3   26 1
   8    4    5 ar
   9    4    7 1
  10    5    6 ar
  11    5   27 1
  12    6   28 1
  13    7    8 am
  14    7   13 2
  15    7   14 2
  16    8    9 1
  17    8   29 1
  18    9   17 ar
  19    9   18 ar
  20   10   11 am
  21   10   15 1
  22   11   12 1
  23   11   16 2
  24   15   30 1
  25   15   31 1
  26   15   32 1
  27   17   21 ar
  28   17   33 1
  29   18   19 ar
  30   18   34 1
  31   19   20 ar
  32   19   35 1
  33   20   21 ar
  34   20   22 ar
  35   21   25 ar
  36   22   23 ar
  37   22   36 1
  38   23   24 ar
  39   23   37 1
  40   24   25 ar
  41   24   38 1
  42   25   39 1

#	End of record

