#	Name: ASD05130038
#	Creating user name:	WinNT
#	Creation time:	15. 06. 2019 20:56

#	Modifying user name:	WinNT
#	Modification time:	15. 06. 2019 20:56

#	Program:	/corina/corina34_cracker 3.40 0067  02.08.2006

@<TRIPOS>MOLECULE
ASD05130038
  54   58    0    0    0
SMALL
NO_CHARGES


@<TRIPOS>ATOM
   1 N1            -0.0685     1.1746    -0.6212 N.am    
   2 C2            -0.0806    -0.1710    -0.6972 C.2     
   3 O3             0.7523    -0.7496    -1.3683 O.2     
   4 N4            -1.0158    -0.8752    -0.0294 N.am    
   5 C5            -1.0852    -2.2672    -0.1800 C.ar    
   6 C6            -2.3194    -2.9094    -0.1496 C.ar    
   7 C7            -2.3926    -4.2831    -0.2982 C.ar    
   8 C8            -1.2396    -5.0247    -0.4777 C.ar    
   9 C9             0.0021    -4.3869    -0.5092 C.ar    
  10 C10            0.0741    -3.0021    -0.3646 C.ar    
  11 N11            2.7012    -6.4324    -2.1984 N.am    
  12 C12            1.5762    -5.7117    -2.0231 C.2     
  13 C13            1.2394    -5.1791    -0.7009 C.2     
  14 C14            2.0750    -5.4176     0.3559 C.2     
  15 C15            3.2508    -6.1767     0.1463 C.ar    
  16 C16            4.1340    -6.4453     1.1992 C.ar    
  17 N17            5.2225    -7.1524     0.9875 N.ar    
  18 C18            5.5303    -7.6366    -0.2110 C.ar    
  19 C19            4.7106    -7.4175    -1.3090 C.ar    
  20 C20            3.5470    -6.6761    -1.1408 C.ar    
  21 O21            0.8360    -5.5031    -2.9679 O.2     
  22 N22            6.6941    -8.3754    -0.3677 N.pl3   
  23 C23            7.0471    -8.9159    -1.6828 C.3     
  24 C24            3.0242    -6.9643    -3.5246 C.3     
  25 F25           -1.3144    -6.3659    -0.6221 F       
  26 F26           -3.4492    -2.1897     0.0259 F       
  27 C27            2.1121     3.8449    -1.9472 C.ar    
  28 C28            0.9649     3.3571    -1.3151 C.ar    
  29 C29            0.9768     1.9037    -1.2179 C.2     
  30 C30            2.0467     1.3231    -1.7337 C.2     
  31 S31            3.1587     2.5047    -2.3968 S.3     
  32 C32           -0.0106     4.2748    -0.8720 C.ar    
  33 C33            0.1646     5.6120    -1.0579 C.ar    
  34 C34            1.3049     6.0943    -1.6859 C.ar    
  35 C35            2.2741     5.2228    -2.1236 C.ar    
  36 H36           -0.7825     1.6407    -0.1587 H       
  37 H37           -1.6409    -0.4189     0.5554 H       
  38 H38           -3.3526    -4.7773    -0.2736 H       
  39 H39            1.0320    -2.5041    -0.3927 H       
  40 H40            1.8405    -5.0313     1.3368 H       
  41 H41            3.9206    -6.0699     2.1892 H       
  42 H42            4.9721    -7.8166    -2.2779 H       
  43 H43            7.2741    -8.5340     0.3934 H       
  44 H44            7.9871    -9.4629    -1.6104 H       
  45 H45            6.2600    -9.5894    -2.0220 H       
  46 H46            7.1568    -8.0976    -2.3945 H       
  47 H47            2.2456    -6.6764    -4.2310 H       
  48 H48            3.9815    -6.5609    -3.8547 H       
  49 H49            3.0858    -8.0514    -3.4749 H       
  50 H50            2.2145     0.2562    -1.7448 H       
  51 H51           -0.9029     3.9140    -0.3821 H       
  52 H52           -0.5902     6.3037    -0.7141 H       
  53 H53            1.4325     7.1573    -1.8281 H       
  54 H54            3.1594     5.6029    -2.6116 H       
@<TRIPOS>BOND
   1    1    2 am
   2    1   29 1
   3    1   36 1
   4    2    3 2
   5    2    4 am
   6    4    5 1
   7    4   37 1
   8    5    6 ar
   9    5   10 ar
  10    6    7 ar
  11    6   26 1
  12    7    8 ar
  13    7   38 1
  14    8    9 ar
  15    8   25 1
  16    9   10 ar
  17    9   13 1
  18   10   39 1
  19   11   12 am
  20   11   20 1
  21   11   24 1
  22   12   13 1
  23   12   21 2
  24   13   14 2
  25   14   15 1
  26   14   40 1
  27   15   16 ar
  28   15   20 ar
  29   16   17 ar
  30   16   41 1
  31   17   18 ar
  32   18   19 ar
  33   18   22 1
  34   19   20 ar
  35   19   42 1
  36   22   23 1
  37   22   43 1
  38   23   44 1
  39   23   45 1
  40   23   46 1
  41   24   47 1
  42   24   48 1
  43   24   49 1
  44   27   28 ar
  45   27   31 1
  46   27   35 ar
  47   28   29 1
  48   28   32 ar
  49   29   30 2
  50   30   31 1
  51   30   50 1
  52   32   33 ar
  53   32   51 1
  54   33   34 ar
  55   33   52 1
  56   34   35 ar
  57   34   53 1
  58   35   54 1

#	End of record

