#	Name: ASD01148650
#	Creating user name:	WinNT
#	Creation time:	15. 06. 2019 19:02

#	Modifying user name:	WinNT
#	Modification time:	15. 06. 2019 19:02

#	Program:	/corina/corina34_cracker 3.40 0067  02.08.2006

@<TRIPOS>MOLECULE
ASD01148650
  55   58    0    0    0
SMALL
NO_CHARGES


@<TRIPOS>ATOM
   1 C1            -0.0169     1.4366    -0.0252 C.ar    
   2 C2             0.0192     0.0536    -0.0358 C.ar    
   3 C3            -1.1607    -0.6688    -0.0207 C.ar    
   4 C4            -2.3746    -0.0086     0.0050 C.ar    
   5 C5            -2.4101     1.3734     0.0157 C.ar    
   6 C6            -1.2314     2.0957     0.0064 C.ar    
   7 C7            -3.7341     2.0926     0.0432 C.3     
   8 O8            -4.7239     1.3245     0.7571 O.3     
   9 C9            -3.6494     3.3757     0.9039 C.3     
  10 C10           -4.1234     2.8939     2.2619 C.2     
  11 N11           -4.7055     1.7508     2.1051 N.2     
  12 C12           -3.9494     3.6059     3.5395 C.ar    
  13 C13           -4.4572     3.0250     4.7800 C.ar    
  14 C14           -3.2968     4.8304     3.5735 C.ar    
  15 C15           -3.1194     5.5208     4.7594 C.ar    
  16 C16           -3.5864     5.0188     5.9661 C.ar    
  17 C17           -4.2759     3.7312     5.9927 C.ar    
  18 C18           -3.3827     5.7772     7.2139 C.2     
  19 O19           -3.8845     5.3879     8.2509 O.2     
  20 N20           -2.6402     6.9021     7.2052 N.am    
  21 C21           -4.7632     3.1860     7.1873 C.ar    
  22 C22           -5.1163     1.7892     4.7939 C.ar    
  23 C23           -4.2089     2.4142    -1.3752 C.3     
  24 F24           -4.3419     1.2268    -2.1029 F       
  25 F25           -5.4454     3.0661    -1.3165 F       
  26 F26           -3.2738     3.2438    -2.0032 F       
  27 Cl27           1.5443    -0.7750    -0.0687 Cl      
  28 C28           -2.4378     7.6557     8.4451 C.3     
  29 C29           -5.5740     1.2835     5.9743 C.ar    
  30 C30           -5.4005     1.9810     7.1668 C.ar    
  31 C31           -1.1222    -2.1753    -0.0328 C.3     
  32 F32           -2.4286    -2.6753    -0.0138 F       
  33 F33           -0.4710    -2.6158    -1.1900 F       
  34 F34           -0.4311    -2.6332     1.0941 F       
  35 C35           -1.5649     8.8797     8.1611 C.3     
  36 F36           -2.1984     9.6956     7.2176 F       
  37 F37           -1.3716     9.5994     9.3451 F       
  38 F38           -0.3264     8.4634     7.6610 F       
  39 C39            1.2677     2.2242    -0.0417 C.3     
  40 F40            0.9761     3.5924    -0.0267 F       
  41 F41            2.0296     1.8974     1.0853 F       
  42 F42            1.9901     1.9140    -1.1989 F       
  43 H43           -3.2957    -0.5724     0.0165 H       
  44 H44           -1.2597     3.1753     0.0147 H       
  45 H45           -2.6228     3.7379     0.9586 H       
  46 H46           -4.3129     4.1476     0.5140 H       
  47 H47           -2.9189     5.2533     2.6544 H       
  48 H48           -2.6061     6.4710     4.7458 H       
  49 H49           -2.2399     7.2126     6.3780 H       
  50 H50           -4.6346     3.7169     8.1190 H       
  51 H51           -5.2614     1.2404     3.8751 H       
  52 H52           -3.4027     7.9801     8.8348 H       
  53 H53           -1.9442     7.0200     9.1802 H       
  54 H54           -6.0821     0.3305     5.9840 H       
  55 H55           -5.7759     1.5615     8.0884 H       
@<TRIPOS>BOND
   1    1    2 ar
   2    1   39 1
   3    1    6 ar
   4    2    3 ar
   5    2   27 1
   6    3    4 ar
   7    3   31 1
   8    4    5 ar
   9    4   43 1
  10    5    6 ar
  11    5    7 1
  12    6   44 1
  13    7    8 1
  14    7    9 1
  15    7   23 1
  16    8   11 1
  17    9   10 1
  18    9   45 1
  19    9   46 1
  20   10   11 2
  21   10   12 1
  22   12   13 ar
  23   12   14 ar
  24   13   22 ar
  25   13   17 ar
  26   14   15 ar
  27   14   47 1
  28   15   16 ar
  29   15   48 1
  30   16   17 ar
  31   16   18 1
  32   17   21 ar
  33   18   19 2
  34   18   20 am
  35   20   28 1
  36   20   49 1
  37   21   30 ar
  38   21   50 1
  39   22   29 ar
  40   22   51 1
  41   23   24 1
  42   23   25 1
  43   23   26 1
  44   28   35 1
  45   28   52 1
  46   28   53 1
  47   29   30 ar
  48   29   54 1
  49   30   55 1
  50   31   32 1
  51   31   33 1
  52   31   34 1
  53   35   36 1
  54   35   37 1
  55   35   38 1
  56   39   40 1
  57   39   41 1
  58   39   42 1

#	End of record

