#	Name: ASD07932072
#	Creating user name:	WinNT
#	Creation time:	15. 06. 2019 21:14

#	Modifying user name:	WinNT
#	Modification time:	15. 06. 2019 21:14

#	Program:	/corina/corina34_cracker 3.40 0067  02.08.2006

@<TRIPOS>MOLECULE
ASD07932072
  44   46    0    0    0
SMALL
NO_CHARGES


@<TRIPOS>ATOM
   1 N1            -0.0142     1.4462     0.0288 N.pl3   
   2 C2             0.0009    -0.0204     0.0211 C.3     
   3 C3             0.7670    -0.5250     1.2518 C.3     
   4 S4             2.4325     0.2099     1.2287 S.o2    
   5 N5             2.1159     1.8289     0.9938 N.am    
   6 C6             1.1750     2.1461     0.0244 C.2     
   7 N7             1.4069     3.0741    -0.8610 N.2     
   8 O8             3.0300     0.1456     2.5163 O.2     
   9 O9             3.1432    -0.1880     0.0643 O.2     
  10 C10           -1.4136    -0.5385     0.0616 C.ar    
  11 C11            0.6919    -0.5176    -1.2502 C.3     
  12 C12           -2.4675     0.3430     0.1997 C.ar    
  13 C13           -3.7711    -0.1350     0.2365 C.ar    
  14 C14           -4.0116    -1.4987     0.1343 C.ar    
  15 C15           -2.9544    -2.3770    -0.0036 C.ar    
  16 C16           -1.6560    -1.8979    -0.0454 C.ar    
  17 N17           -4.8406     0.7565     0.3768 N.am    
  18 C18           -6.0108     0.5082    -0.2440 C.2     
  19 O19           -6.1078    -0.4367    -1.0028 O.2     
  20 C20           -7.1764     1.3847    -0.0023 C.ar    
  21 C21           -8.3910     1.1288    -0.6453 C.ar    
  22 F22           -0.6235    -2.7586    -0.1804 F       
  23 N23           -9.4313     1.9168    -0.4253 N.ar    
  24 C24           -9.3204     2.9438     0.4014 C.ar    
  25 C25           -8.1112     3.1994     1.0416 C.ar    
  26 N26           -7.0737     2.4166     0.8324 N.ar    
  27 F27          -10.3837     3.7469     0.6245 F       
  28 F28           -8.5025     0.0800    -1.4895 F       
  29 C29            2.7974     2.8662     1.7722 C.3     
  30 H30            3.7101     3.1661     1.2573 H       
  31 H31            2.1408     3.7295     1.8804 H       
  32 H32            3.0483     2.4747     2.7580 H       
  33 H33           -0.8587     1.9233     0.0329 H       
  34 H34            0.2445    -0.2227     2.1593 H       
  35 H35            0.8444    -1.6117     1.2164 H       
  36 H36            2.2487     3.5559    -0.8494 H       
  37 H37            1.7155    -0.1439    -1.2772 H       
  38 H38            0.7028    -1.6075    -1.2552 H       
  39 H39            0.1497    -0.1556    -2.1237 H       
  40 H40           -2.2783     1.4033     0.2794 H       
  41 H41           -5.0244    -1.8725     0.1631 H       
  42 H42           -3.1410    -3.4378    -0.0828 H       
  43 H43           -4.7398     1.5532     0.9209 H       
  44 H44           -8.0253     4.0391     1.7153 H       
@<TRIPOS>BOND
   1    1    2 1
   2    1    6 1
   3    1   33 1
   4    2    3 1
   5    2   10 1
   6    2   11 1
   7    3    4 1
   8    3   34 1
   9    3   35 1
  10    4    5 am
  11    4    8 2
  12    4    9 2
  13    5    6 1
  14    5   29 1
  15    6    7 2
  16    7   36 1
  17   10   12 ar
  18   10   16 ar
  19   11   37 1
  20   11   38 1
  21   11   39 1
  22   12   13 ar
  23   12   40 1
  24   13   14 ar
  25   13   17 1
  26   14   15 ar
  27   14   41 1
  28   15   16 ar
  29   15   42 1
  30   16   22 1
  31   17   18 am
  32   17   43 1
  33   18   19 2
  34   18   20 1
  35   20   21 ar
  36   20   26 ar
  37   21   23 ar
  38   21   28 1
  39   23   24 ar
  40   24   25 ar
  41   24   27 1
  42   25   26 ar
  43   25   44 1
  44   29   30 1
  45   29   31 1
  46   29   32 1

#	End of record

