#	Name: ASD05940097
#	Creating user name:	WinNT
#	Creation time:	15. 06. 2019 21:04

#	Modifying user name:	WinNT
#	Modification time:	15. 06. 2019 21:04

#	Program:	/corina/corina34_cracker 3.40 0067  02.08.2006

@<TRIPOS>MOLECULE
ASD05940097
  56   59    0    0    0
SMALL
NO_CHARGES


@<TRIPOS>ATOM
   1 C1             2.4233     1.3706     0.6561 C.ar    
   2 C2             2.5342    -0.0053     0.6658 C.ar    
   3 C3             1.2997     1.9728     0.1051 C.ar    
   4 C4             0.2878     1.1907    -0.4362 C.ar    
   5 C5             0.3988    -0.1853    -0.4265 C.ar    
   6 C6             1.5224    -0.7874     0.1246 C.ar    
   7 N7             1.6350    -2.1835     0.1345 N.am    
   8 C8             1.1618    -2.9051    -0.9009 C.2     
   9 C9             1.3746    -4.3965    -0.9396 C.3     
  10 O10            0.5647    -2.3541    -1.8014 O.2     
  11 N11            1.1869     3.3689     0.0956 N.am    
  12 C12            2.2890     4.1332    -0.0376 C.2     
  13 C13            2.1832     5.6328     0.0672 C.3     
  14 O14            3.3660     3.6139    -0.2417 O.2     
  15 C15            3.5680     6.2560    -0.1199 C.3     
  16 C16            3.4606     7.7786    -0.0135 C.3     
  17 C17            2.5158     8.3002    -1.0981 C.3     
  18 C18            1.1311     7.6769    -0.9110 C.3     
  19 C19            1.2385     6.1544    -1.0174 C.3     
  20 C20            0.5837     8.0546     0.4669 C.3     
  21 C21            1.6359     6.0104     1.4451 C.3     
  22 C22            1.5285     7.5329     1.5514 C.3     
  23 C23            2.9132     8.1562     1.3644 C.3     
  24 C24            0.7443    -4.9688    -2.2108 C.3     
  25 C25            2.8746    -4.6979    -0.9338 C.3     
  26 C26            0.7211    -5.0369     0.2867 C.3     
  27 H27            3.2081     1.9787     1.0811 H       
  28 H28            3.4082    -0.4735     1.0941 H       
  29 H29           -0.5861     1.6589    -0.8644 H       
  30 H30           -0.3883    -0.7935    -0.8471 H       
  31 H31            2.0535    -2.6310     0.8865 H       
  32 H32            0.3156     3.7857     0.1849 H       
  33 H33            4.2410     5.8844     0.6528 H       
  34 H34            3.9579     5.9870    -1.1015 H       
  35 H35            4.4471     8.2226    -0.1468 H       
  36 H36            2.4393     9.3848    -1.0223 H       
  37 H37            2.9058     8.0311    -2.0797 H       
  38 H38            0.4580     8.0485    -1.6837 H       
  39 H39            1.6284     5.8854    -1.9990 H       
  40 H40            0.2520     5.7104    -0.8841 H       
  41 H41            0.5072     9.1392     0.5426 H       
  42 H42           -0.4028     7.6105     0.6001 H       
  43 H43            0.6494     5.5664     1.5783 H       
  44 H44            2.3089     5.6388     2.2177 H       
  45 H45            1.1385     7.8020     2.5331 H       
  46 H46            3.5863     7.7846     2.1371 H       
  47 H47            2.8367     9.2409     1.4402 H       
  48 H48            1.2099    -4.5126    -3.0844 H       
  49 H49            0.8982    -6.0475    -2.2388 H       
  50 H50           -0.3244    -4.7541    -2.2149 H       
  51 H51            3.3237    -4.2902    -0.0282 H       
  52 H52            3.0286    -5.7766    -0.9618 H       
  53 H53            3.3402    -4.2417    -1.8074 H       
  54 H54           -0.3476    -4.8222     0.2826 H       
  55 H55            0.8750    -6.1156     0.2587 H       
  56 H56            1.1701    -4.6292     1.1923 H       
@<TRIPOS>BOND
   1    1    2 ar
   2    1    3 ar
   3    1   27 1
   4    2    6 ar
   5    2   28 1
   6    3    4 ar
   7    3   11 1
   8    4    5 ar
   9    4   29 1
  10    5    6 ar
  11    5   30 1
  12    6    7 1
  13    7    8 am
  14    7   31 1
  15    8    9 1
  16    8   10 2
  17    9   24 1
  18    9   25 1
  19    9   26 1
  20   11   12 am
  21   11   32 1
  22   12   13 1
  23   12   14 2
  24   13   15 1
  25   13   21 1
  26   13   19 1
  27   15   16 1
  28   15   33 1
  29   15   34 1
  30   16   17 1
  31   16   23 1
  32   16   35 1
  33   17   18 1
  34   17   36 1
  35   17   37 1
  36   18   19 1
  37   18   20 1
  38   18   38 1
  39   19   39 1
  40   19   40 1
  41   20   22 1
  42   20   41 1
  43   20   42 1
  44   21   22 1
  45   21   43 1
  46   21   44 1
  47   22   23 1
  48   22   45 1
  49   23   46 1
  50   23   47 1
  51   24   48 1
  52   24   49 1
  53   24   50 1
  54   25   51 1
  55   25   52 1
  56   25   53 1
  57   26   54 1
  58   26   55 1
  59   26   56 1

#	End of record

