#	Name: ASD01812444
#	Creating user name:	WinNT
#	Creation time:	15. 06. 2019 19:28

#	Modifying user name:	WinNT
#	Modification time:	15. 06. 2019 19:28

#	Program:	/corina/corina34_cracker 3.40 0067  02.08.2006

@<TRIPOS>MOLECULE
ASD01812444
  65   69    0    0    0
SMALL
NO_CHARGES


@<TRIPOS>ATOM
   1 C1            -0.0213     1.4757     0.0485 C.ar    
   2 C2            -0.0898     0.1521     0.4393 C.ar    
   3 C3             1.0709    -0.5779     0.6165 C.ar    
   4 C4             2.3003     0.0126     0.4017 C.ar    
   5 C5             2.3785     1.3445     0.0070 C.ar    
   6 C6             1.2106     2.0770    -0.1674 C.ar    
   7 N7             3.6413     1.9064    -0.2066 N.3     
   8 C8             3.6103     3.3726    -0.1527 C.3     
   9 C9             2.4836     3.8725    -1.0661 C.3     
  10 O10            1.2437     3.3855    -0.5423 O.3     
  11 C11            4.6253     1.3654     0.7405 C.3     
  12 C12            5.9922     1.9058     0.4082 C.ar    
  13 C13            6.7593     1.2913    -0.5645 C.ar    
  14 C14            6.4745     3.0185     1.0725 C.ar    
  15 C15            7.7268     3.5164     0.7698 C.ar    
  16 C16            8.5015     2.8984    -0.2026 C.ar    
  17 C17            8.0125     1.7843    -0.8713 C.ar    
  18 N18            3.5020     6.0542    -1.6333 N.am    
  19 C19            2.4727     5.3794    -1.0841 C.2     
  20 O20            1.5377     5.9848    -0.6045 O.2     
  21 N21            9.7729     3.4014    -0.5121 N.pl3   
  22 C22           10.6256     2.8977    -1.4329 C.2     
  23 C23           11.7395     3.6659    -1.4262 C.2     
  24 C24           11.5630     4.6724    -0.4705 C.2     
  25 N25           10.3826     4.5185     0.0735 N.2     
  26 C26            3.4914     7.5191    -1.6508 C.3     
  27 C27            4.7659     8.0303    -2.3256 C.3     
  28 C28            4.7548     9.5601    -2.3438 C.3     
  29 N29            5.9784    10.0510    -2.9917 N.3     
  30 C30            5.8984    11.4975    -3.2416 C.3     
  31 C31            7.2139    11.9764    -3.8613 C.3     
  32 O32            7.4702    11.2339    -5.0564 O.3     
  33 C33            7.5551     9.8213    -4.8495 C.3     
  34 C34            6.2430     9.3206    -4.2399 C.3     
  35 H35           -0.9295     2.0427    -0.0936 H       
  36 H36           -1.0504    -0.3124     0.6066 H       
  37 H37            1.0158    -1.6118     0.9240 H       
  38 H38            3.2045    -0.5613     0.5409 H       
  39 H39            3.4227     3.6972     0.8708 H       
  40 H40            4.5645     3.7717    -0.4967 H       
  41 H41            2.6314     3.4928    -2.0771 H       
  42 H42            4.3544     1.6608     1.7541 H       
  43 H43            4.6375     0.2777     0.6700 H       
  44 H44            6.3783     0.4249    -1.0846 H       
  45 H45            5.8713     3.4990     1.8286 H       
  46 H46            8.1029     4.3857     1.2887 H       
  47 H47            8.6115     1.3035    -1.6306 H       
  48 H48            4.2499     5.5700    -2.0169 H       
  49 H49           10.4492     2.0368    -2.0607 H       
  50 H50           12.6112     3.5264    -2.0484 H       
  51 H51           12.2761     5.4460    -0.2268 H       
  52 H52            2.6210     7.8695    -2.2054 H       
  53 H53            3.4460     7.8943    -0.6284 H       
  54 H54            5.6363     7.6798    -1.7709 H       
  55 H55            4.8113     7.6550    -3.3479 H       
  56 H56            3.8844     9.9106    -2.8985 H       
  57 H57            4.7094     9.9354    -1.3215 H       
  58 H58            5.0767    11.7034    -3.9276 H       
  59 H59            5.7276    12.0205    -2.3007 H       
  60 H60            7.1384    13.0371    -4.1009 H       
  61 H61            8.0279    11.8195    -3.1536 H       
  62 H62            7.7264     9.3234    -5.8039 H       
  63 H63            8.3791     9.6018    -4.1706 H       
  64 H64            6.3239     8.2545    -4.0276 H       
  65 H65            5.4269     9.4917    -4.9418 H       
@<TRIPOS>BOND
   1    1    2 ar
   2    1    6 ar
   3    1   35 1
   4    2    3 ar
   5    2   36 1
   6    3    4 ar
   7    3   37 1
   8    4    5 ar
   9    4   38 1
  10    5    7 1
  11    5    6 ar
  12    6   10 1
  13    7   11 1
  14    7    8 1
  15    8    9 1
  16    8   39 1
  17    8   40 1
  18    9   10 1
  19    9   19 1
  20    9   41 1
  21   11   12 1
  22   11   42 1
  23   11   43 1
  24   12   14 ar
  25   12   13 ar
  26   13   17 ar
  27   13   44 1
  28   14   15 ar
  29   14   45 1
  30   15   16 ar
  31   15   46 1
  32   16   17 ar
  33   16   21 1
  34   17   47 1
  35   18   19 am
  36   18   26 1
  37   18   48 1
  38   19   20 2
  39   21   22 1
  40   21   25 1
  41   22   23 2
  42   22   49 1
  43   23   24 1
  44   23   50 1
  45   24   25 2
  46   24   51 1
  47   26   27 1
  48   26   52 1
  49   26   53 1
  50   27   28 1
  51   27   54 1
  52   27   55 1
  53   28   29 1
  54   28   56 1
  55   28   57 1
  56   29   30 1
  57   29   34 1
  58   30   31 1
  59   30   58 1
  60   30   59 1
  61   31   32 1
  62   31   60 1
  63   31   61 1
  64   32   33 1
  65   33   34 1
  66   33   62 1
  67   33   63 1
  68   34   64 1
  69   34   65 1

#	End of record

