#	Name: ASD01900628
#	Creating user name:	WinNT
#	Creation time:	15. 06. 2019 19:52

#	Modifying user name:	WinNT
#	Modification time:	15. 06. 2019 19:52

#	Program:	/corina/corina34_cracker 3.40 0067  02.08.2006

@<TRIPOS>MOLECULE
ASD01900628
  34   37    0    0    0
SMALL
NO_CHARGES


@<TRIPOS>ATOM
   1 C1            -0.0167     1.3800     0.0096 C.ar    
   2 C2             0.0021    -0.0041     0.0020 C.ar    
   3 C3             1.1983    -0.6934    -0.0152 C.ar    
   4 C4             2.4008     0.0006    -0.0252 C.ar    
   5 C5             2.3796     1.4020    -0.0131 C.ar    
   6 O6             3.5766    -0.6624    -0.0538 O.3     
   7 C7             4.7399    -0.0519     0.2308 C.2     
   8 C8             4.8722     1.2950     0.2633 C.2     
   9 C9             3.6793     2.1191    -0.0106 C.2     
  10 N10            3.7622     3.4076    -0.2377 N.2     
  11 C11            5.9235    -0.8857     0.5208 C.ar    
  12 N12            7.0868    -0.2935     0.8054 N.ar    
  13 C13            8.1767    -0.9688     1.0724 C.ar    
  14 C14            8.1579    -2.3746     1.0682 C.ar    
  15 C15            6.9405    -3.0431     0.7704 C.ar    
  16 C16            5.8029    -2.2664     0.4975 C.ar    
  17 C17            9.3054    -3.1315     1.3488 C.ar    
  18 C18            9.2345    -4.4919     1.3314 C.ar    
  19 C19            8.0398    -5.1470     1.0392 C.ar    
  20 C20            6.9052    -4.4460     0.7617 C.ar    
  21 O21            5.0245     4.0490    -0.2247 O.3     
  22 C22            1.1710     2.0900     0.0021 C.ar    
  23 F23            1.1567     3.4409     0.0091 F       
  24 H24           -0.9597     1.9065     0.0169 H       
  25 H25           -0.9293    -0.5508     0.0100 H       
  26 H26            1.1986    -1.7734    -0.0204 H       
  27 H27            5.8248     1.7538     0.4832 H       
  28 H28            9.0935    -0.4437     1.2963 H       
  29 H29            4.8573    -2.7343     0.2664 H       
  30 H30           10.2390    -2.6388     1.5767 H       
  31 H31           10.1193    -5.0724     1.5473 H       
  32 H32            8.0131    -6.2266     1.0323 H       
  33 H33            5.9856    -4.9658     0.5369 H       
  34 H34            4.9850     4.9987    -0.4025 H       
@<TRIPOS>BOND
   1    1    2 ar
   2    1   22 ar
   3    1   24 1
   4    2    3 ar
   5    2   25 1
   6    3    4 ar
   7    3   26 1
   8    4    5 ar
   9    4    6 1
  10    5   22 ar
  11    5    9 1
  12    6    7 1
  13    7    8 2
  14    7   11 1
  15    8    9 1
  16    8   27 1
  17    9   10 2
  18   10   21 1
  19   11   12 ar
  20   11   16 ar
  21   12   13 ar
  22   13   14 ar
  23   13   28 1
  24   14   15 ar
  25   14   17 ar
  26   15   16 ar
  27   15   20 ar
  28   16   29 1
  29   17   18 ar
  30   17   30 1
  31   18   19 ar
  32   18   31 1
  33   19   20 ar
  34   19   32 1
  35   20   33 1
  36   21   34 1
  37   22   23 1

#	End of record

