#	Name: ASD00060038
#	Creating user name:	WinNT
#	Creation time:	15. 06. 2019 18:29

#	Modifying user name:	WinNT
#	Modification time:	15. 06. 2019 18:29

#	Program:	/corina/corina34_cracker 3.40 0067  02.08.2006

@<TRIPOS>MOLECULE
ASD00060038
  31   33    0    0    0
SMALL
NO_CHARGES


@<TRIPOS>ATOM
   1 Cl1           -7.6107     7.1815     0.5703 Cl      
   2 Cl2            3.9119    -0.8181    -0.0393 Cl      
   3 C3            -0.0167     1.3782     0.0096 C.ar    
   4 C4             0.0021    -0.0041     0.0020 C.ar    
   5 C5             1.2081    -0.6790    -0.0132 C.ar    
   6 C6             2.3967     0.0290    -0.0208 C.ar    
   7 C7             2.3773     1.4123    -0.0131 C.ar    
   8 C8             1.1707     2.0862     0.0021 C.ar    
   9 C9            -5.1909     3.6128     1.8889 C.ar    
  10 C10           -6.5185     3.7367     2.2736 C.ar    
  11 N11           -4.2084     2.6695     2.1186 N.pl3   
  12 C12           -7.2516     4.8309     1.8664 C.ar    
  13 C13           -6.6707     5.8114     1.0732 C.ar    
  14 C14           -5.3545     5.7049     0.6819 C.ar    
  15 C15           -4.5960     4.6053     1.0917 C.ar    
  16 C16           -1.3320     2.1136     0.0199 C.3     
  17 N17           -3.3111     4.2224     0.8763 N.2     
  18 C18           -3.0857     3.0900     1.4760 C.2     
  19 C19           -1.7703     2.3546     1.4658 C.3     
  20 H20           -0.9258    -0.5566     0.0083 H       
  21 H21            1.2226    -1.7589    -0.0187 H       
  22 H22            3.3048     1.9655    -0.0194 H       
  23 H23            1.1554     3.1661     0.0081 H       
  24 H24           -6.9764     2.9774     2.8902 H       
  25 H25           -4.3017     1.8578     2.6415 H       
  26 H26           -8.2848     4.9260     2.1662 H       
  27 H27           -4.9088     6.4710     0.0649 H       
  28 H28           -1.2173     3.0705    -0.4893 H       
  29 H29           -2.0859     1.5169    -0.4937 H       
  30 H30           -1.8851     1.3977     1.9750 H       
  31 H31           -1.0165     2.9513     1.9793 H       
@<TRIPOS>BOND
   1    1   13 1
   2    2    6 1
   3    3    4 ar
   4    3    8 ar
   5    3   16 1
   6    4    5 ar
   7    4   20 1
   8    5    6 ar
   9    5   21 1
  10    6    7 ar
  11    7    8 ar
  12    7   22 1
  13    8   23 1
  14    9   10 ar
  15    9   11 1
  16    9   15 ar
  17   10   12 ar
  18   10   24 1
  19   11   18 1
  20   11   25 1
  21   12   13 ar
  22   12   26 1
  23   13   14 ar
  24   14   15 ar
  25   14   27 1
  26   15   17 1
  27   16   19 1
  28   16   28 1
  29   16   29 1
  30   17   18 2
  31   18   19 1
  32   19   30 1
  33   19   31 1

#	End of record

