#	Name: ASD01915514
#	Creating user name:	WinNT
#	Creation time:	15. 06. 2019 20:05

#	Modifying user name:	WinNT
#	Modification time:	15. 06. 2019 20:05

#	Program:	/corina/corina34_cracker 3.40 0067  02.08.2006

@<TRIPOS>MOLECULE
ASD01915514
  40   43    0    0    0
SMALL
NO_CHARGES


@<TRIPOS>ATOM
   1 C1            -0.0042     1.4681     0.2336 C.2     
   2 N2             0.0658     0.1184    -0.0300 N.pl3   
   3 C3            -1.1435    -0.6645    -0.3115 C.3     
   4 C4            -2.3282    -0.0485     0.4309 C.3     
   5 N5            -2.4044     1.3988     0.2637 N.am    
   6 C6            -1.2933     2.1741     0.2849 C.2     
   7 C7             1.2765     1.9054     0.4236 C.2     
   8 C8             2.0757     0.7643     0.2721 C.2     
   9 N9             1.2860    -0.2512     0.0107 N.2     
  10 C10            3.5773     0.7122     0.3888 C.3     
  11 O11            4.0779     2.0182     0.6816 O.3     
  12 C12            5.4238     2.1463     0.8198 C.ar    
  13 C13           -3.6534     1.9999     0.0770 C.ar    
  14 O14           -1.3586     3.3873     0.3428 O.2     
  15 C15            5.9782     3.3859     1.1044 C.ar    
  16 C16            6.2452     1.0368     0.6821 C.ar    
  17 C17            7.6130     1.1698     0.8230 C.ar    
  18 C18            8.1635     2.4073     1.1010 C.ar    
  19 C19            7.3465     3.5135     1.2443 C.ar    
  20 C20           -3.9741     2.5995    -1.1383 C.ar    
  21 C21           -5.2252     3.1825    -1.2749 C.ar    
  22 C22           -6.1063     3.1492    -0.2066 C.ar    
  23 N23           -5.7697     2.5732     0.9306 N.ar    
  24 C24           -4.5936     2.0026     1.0992 C.ar    
  25 F25           -5.5799     3.7761    -2.4355 F       
  26 H26           -1.3414    -0.6556    -1.3833 H       
  27 H27           -0.9983    -1.6914     0.0237 H       
  28 H28           -3.2492    -0.4952     0.0566 H       
  29 H29           -2.2351    -0.2758     1.4929 H       
  30 H30            1.6019     2.9117     0.6425 H       
  31 H31            3.8559     0.0281     1.1904 H       
  32 H32            4.0029     0.3623    -0.5517 H       
  33 H33            5.3405     4.2503     1.2161 H       
  34 H34            5.8157     0.0699     0.4654 H       
  35 H35            8.2528     0.3063     0.7163 H       
  36 H36            9.2331     2.5091     1.2107 H       
  37 H37            7.7790     4.4792     1.4611 H       
  38 H38           -3.2663     2.6104    -1.9539 H       
  39 H39           -7.0820     3.6014    -0.3065 H       
  40 H40           -4.3547     1.5409     2.0459 H       
@<TRIPOS>BOND
   1    1    2 1
   2    1    7 2
   3    1    6 1
   4    2    3 1
   5    2    9 1
   6    3    4 1
   7    3   26 1
   8    3   27 1
   9    4    5 1
  10    4   28 1
  11    4   29 1
  12    5    6 am
  13    5   13 1
  14    6   14 2
  15    7    8 1
  16    7   30 1
  17    8    9 2
  18    8   10 1
  19   10   11 1
  20   10   31 1
  21   10   32 1
  22   11   12 1
  23   12   15 ar
  24   12   16 ar
  25   13   20 ar
  26   13   24 ar
  27   15   19 ar
  28   15   33 1
  29   16   17 ar
  30   16   34 1
  31   17   18 ar
  32   17   35 1
  33   18   19 ar
  34   18   36 1
  35   19   37 1
  36   20   21 ar
  37   20   38 1
  38   21   22 ar
  39   21   25 1
  40   22   23 ar
  41   22   39 1
  42   23   24 ar
  43   24   40 1

#	End of record

