#	Name: ASD03240550
#	Creating user name:	WinNT
#	Creation time:	15. 06. 2019 20:35

#	Modifying user name:	WinNT
#	Modification time:	15. 06. 2019 20:35

#	Program:	/corina/corina34_cracker 3.40 0067  02.08.2006

@<TRIPOS>MOLECULE
ASD03240550
  58   64    0    0    0
SMALL
NO_CHARGES


@<TRIPOS>ATOM
   1 C1            -0.0166     1.3754     0.0096 C.ar    
   2 C2             0.0021    -0.0041     0.0020 C.ar    
   3 N3             1.1422    -0.6683    -0.0053 N.ar    
   4 C4             2.3145    -0.0481    -0.0053 C.ar    
   5 C5             2.3702     1.3443    -0.0124 C.ar    
   6 C6             1.1861     2.0698     0.0018 C.ar    
   7 N7             3.4821    -0.8057     0.0230 N.pl3   
   8 C8             4.3589    -0.7189     1.1011 C.ar    
   9 C9             4.9950     0.4897     1.4047 C.ar    
  10 C10            4.7638     1.6837     0.5625 C.2     
  11 N11            3.5939     2.0275    -0.0512 N.pl3   
  12 C12            4.6045    -1.8382     1.8850 C.ar    
  13 C13            5.4640    -1.7524     2.9637 C.ar    
  14 C14            6.0853    -0.5544     3.2718 C.ar    
  15 C15            5.8555     0.5664     2.4996 C.ar    
  16 N16            5.6758     2.5946     0.2851 N.2     
  17 C17            5.1469     3.5397    -0.5060 C.2     
  18 C18            3.8238     3.2051    -0.7384 C.2     
  19 C19            2.8526     3.9559    -1.5567 C.ar    
  20 C20            2.7548     5.3442    -1.4324 C.ar    
  21 C21            2.0303     3.2828    -2.4639 C.ar    
  22 C22            1.1250     3.9913    -3.2259 C.ar    
  23 C23            1.0303     5.3656    -3.0939 C.ar    
  24 C24            1.8449     6.0395    -2.2009 C.ar    
  25 C25            5.8529     4.7307    -1.0364 C.2     
  26 C26            0.0389     6.1327    -3.9305 C.3     
  27 N27           -1.0404     5.2857    -4.4555 N.3     
  28 C28           -0.4611     7.4246    -3.2630 C.3     
  29 C29           -0.3721     8.0826    -4.6501 C.3     
  30 C30            0.6939     7.0271    -4.9963 C.3     
  31 C31            6.8559     5.4819    -0.3714 C.2     
  32 C32            7.2292     6.4751    -1.1998 C.2     
  33 N33            6.5036     6.3760    -2.3507 N.pl3   
  34 C34            5.6651     5.3060    -2.2555 C.2     
  35 H35           -0.9556     1.9091     0.0170 H       
  36 H36           -0.9306    -0.5486     0.0025 H       
  37 H37            1.2002     3.1497     0.0061 H       
  38 H38            3.6867    -1.4003    -0.7156 H       
  39 H39            4.1232    -2.7765     1.6518 H       
  40 H40            5.6524    -2.6260     3.5701 H       
  41 H41            6.7518    -0.4964     4.1196 H       
  42 H42            6.3414     1.5000     2.7421 H       
  43 H43            3.3899     5.8715    -0.7359 H       
  44 H44            2.1036     2.2104    -2.5684 H       
  45 H45            0.4887     3.4724    -3.9275 H       
  46 H46            1.7655     7.1122    -2.1032 H       
  47 H47           -0.6681     4.4631    -4.9058 H       
  48 H48           -1.6910     5.0355    -3.7260 H       
  49 H49           -1.4785     7.3520    -2.8787 H       
  50 H50            0.2380     7.8399    -2.5371 H       
  51 H51           -1.2852     7.9879    -5.2377 H       
  52 H52            0.0132     9.1019    -4.6259 H       
  53 H53            1.7093     7.3331    -4.7444 H       
  54 H54            0.6078     6.6357    -6.0099 H       
  55 H55            7.2477     5.2920     0.6169 H       
  56 H56            7.9772     7.2249    -0.9884 H       
  57 H57            6.5758     6.9688    -3.1151 H       
  58 H58            4.9681     4.9768    -3.0119 H       
@<TRIPOS>BOND
   1    1    2 ar
   2    1    6 ar
   3    1   35 1
   4    2    3 ar
   5    2   36 1
   6    3    4 ar
   7    4    5 ar
   8    4    7 1
   9    5    6 ar
  10    5   11 1
  11    6   37 1
  12    7    8 1
  13    7   38 1
  14    8    9 ar
  15    8   12 ar
  16    9   10 1
  17    9   15 ar
  18   10   11 1
  19   10   16 2
  20   11   18 1
  21   12   13 ar
  22   12   39 1
  23   13   14 ar
  24   13   40 1
  25   14   15 ar
  26   14   41 1
  27   15   42 1
  28   16   17 1
  29   17   18 2
  30   17   25 1
  31   18   19 1
  32   19   20 ar
  33   19   21 ar
  34   20   24 ar
  35   20   43 1
  36   21   22 ar
  37   21   44 1
  38   22   23 ar
  39   22   45 1
  40   23   24 ar
  41   23   26 1
  42   24   46 1
  43   25   31 1
  44   25   34 2
  45   26   27 1
  46   26   28 1
  47   26   30 1
  48   27   47 1
  49   27   48 1
  50   28   29 1
  51   28   49 1
  52   28   50 1
  53   29   30 1
  54   29   51 1
  55   29   52 1
  56   30   53 1
  57   30   54 1
  58   31   32 2
  59   31   55 1
  60   32   33 1
  61   32   56 1
  62   33   34 1
  63   33   57 1
  64   34   58 1

#	End of record

