#	Name: ASD01916589
#	Creating user name:	WinNT
#	Creation time:	15. 06. 2019 20:07

#	Modifying user name:	WinNT
#	Modification time:	15. 06. 2019 20:07

#	Program:	/corina/corina34_cracker 3.40 0067  02.08.2006

@<TRIPOS>MOLECULE
ASD01916589
  44   47    0    0    0
SMALL
NO_CHARGES


@<TRIPOS>ATOM
   1 C1            -0.0171     1.4092     0.0098 C.ar    
   2 C2             0.0021    -0.0041     0.0020 C.ar    
   3 C3            -1.1918    -0.7264     0.0073 C.ar    
   4 C4            -2.3854    -0.0669     0.0187 C.ar    
   5 C5            -2.4253     1.3357     0.0257 C.ar    
   6 C6            -1.2436     2.0764     0.0193 C.ar    
   7 N7             1.1583     2.0866     0.0022 N.2     
   8 C8             2.3033     1.4748    -0.0227 C.2     
   9 N9             2.4089     0.1109    -0.0280 N.am    
  10 C10            1.3117    -0.6723    -0.0131 C.2     
  11 C11           -3.6880     2.0112     0.0370 C.1     
  12 O12            1.4018    -1.8864    -0.0119 O.2     
  13 C13           -4.7231     2.5650     0.0463 C.1     
  14 C14           -5.9857     3.2404     0.0576 C.ar    
  15 N15           -6.0233     4.5695     0.0641 N.ar    
  16 C16           -7.1643     5.2271     0.0741 C.ar    
  17 C17           -8.3727     4.5543     0.0782 C.ar    
  18 C18           -8.3807     3.1658     0.0716 C.ar    
  19 C19           -7.1697     2.4981     0.0558 C.ar    
  20 C20            3.5838     2.2801    -0.0587 C.3     
  21 C21            4.1904     2.1876    -1.4567 C.3     
  22 C22            5.1017     0.9794    -1.5816 C.3     
  23 C23            4.3405    -0.3289    -1.4529 C.3     
  24 C24            3.7497    -0.4863    -0.0531 C.3     
  25 C25            5.7946     1.0187    -2.9451 C.3     
  26 F26           -1.2852     3.4267     0.0268 F       
  27 H27           -1.1705    -1.8062     0.0021 H       
  28 H28           -3.3077    -0.6289     0.0221 H       
  29 H29           -7.1563     6.3071     0.0796 H       
  30 H30           -9.3022     5.1042     0.0868 H       
  31 H31           -9.3123     2.6193     0.0746 H       
  32 H32           -7.1394     1.4185     0.0502 H       
  33 H33            3.3662     3.3220     0.1762 H       
  34 H34            4.2873     1.8796     0.6712 H       
  35 H35            3.3877     2.1068    -2.1897 H       
  36 H36            4.7660     3.0913    -1.6569 H       
  37 H37            5.8599     1.0258    -0.7999 H       
  38 H38            3.5337    -0.3467    -2.1856 H       
  39 H39            5.0195    -1.1585    -1.6499 H       
  40 H40            4.3880     0.0201     0.6710 H       
  41 H41            3.6819    -1.5451     0.1969 H       
  42 H42            6.3822     1.9331    -3.0278 H       
  43 H43            6.4515     0.1545    -3.0439 H       
  44 H44            5.0438     0.9966    -3.7350 H       
@<TRIPOS>BOND
   1    1    2 ar
   2    1    7 1
   3    1    6 ar
   4    2    3 ar
   5    2   10 1
   6    3    4 ar
   7    3   27 1
   8    4    5 ar
   9    4   28 1
  10    5    6 ar
  11    5   11 1
  12    6   26 1
  13    7    8 2
  14    8    9 1
  15    8   20 1
  16    9   10 am
  17    9   24 1
  18   10   12 2
  19   11   13 3
  20   13   14 1
  21   14   15 ar
  22   14   19 ar
  23   15   16 ar
  24   16   17 ar
  25   16   29 1
  26   17   18 ar
  27   17   30 1
  28   18   19 ar
  29   18   31 1
  30   19   32 1
  31   20   21 1
  32   20   33 1
  33   20   34 1
  34   21   22 1
  35   21   35 1
  36   21   36 1
  37   22   23 1
  38   22   25 1
  39   22   37 1
  40   23   24 1
  41   23   38 1
  42   23   39 1
  43   24   40 1
  44   24   41 1
  45   25   42 1
  46   25   43 1
  47   25   44 1

#	End of record

