#	Name: ASD01028718
#	Creating user name:	WinNT
#	Creation time:	15. 06. 2019 18:58

#	Modifying user name:	WinNT
#	Modification time:	15. 06. 2019 18:58

#	Program:	/corina/corina34_cracker 3.40 0067  02.08.2006

@<TRIPOS>MOLECULE
ASD01028718
  52   57    0    0    0
SMALL
NO_CHARGES


@<TRIPOS>ATOM
   1 N1            -0.0157     1.3082     0.0092 N.ar    
   2 C2             0.0021    -0.0041     0.0020 C.ar    
   3 C3             1.1922    -0.7202    -0.0132 C.ar    
   4 C4             2.3996    -0.0447    -0.0211 C.ar    
   5 C5             2.3687     1.3681    -0.0132 C.ar    
   6 C6             3.5518     2.1216    -0.0208 C.ar    
   7 C7             3.4891     3.4809    -0.0134 C.ar    
   8 C8             2.2563     4.1399     0.0018 C.ar    
   9 C9             1.0778     3.4287     0.0101 C.ar    
  10 C10            1.1142     2.0252     0.0023 C.ar    
  11 O11            3.5766    -0.7177    -0.0354 O.3     
  12 C12            3.5077    -2.1450    -0.0420 C.3     
  13 C13            6.8403    -3.5079     0.5374 C.2     
  14 C14            7.8415    -3.9178     1.4393 C.2     
  15 C15            7.6095    -3.8242     2.7742 C.2     
  16 C16            6.3758    -3.3206     3.2452 C.2     
  17 N17            5.4394    -2.9377     2.4018 N.2     
  18 N18            5.6506    -3.0222     1.0240 N.pl3   
  19 N19            5.6091    -3.0003    -1.1236 N.2     
  20 N20            6.7591    -3.4678    -0.7826 N.2     
  21 C21            4.9026    -2.7152    -0.0579 C.2     
  22 C22            3.8245    -2.2845     7.5009 C.3     
  23 C23            4.9967    -2.7614     6.6538 C.2     
  24 C24            6.1382    -3.2277     7.2070 C.2     
  25 C25            6.3751    -3.3245     8.6997 C.3     
  26 C26            5.3159    -2.4695     9.4058 C.3     
  27 N27            3.9903    -2.8027     8.8654 N.3     
  28 C28            5.0058    -2.7632     5.2692 C.2     
  29 C29            6.1336    -3.2234     4.6989 C.2     
  30 S30            7.2747    -3.6915     5.9515 S.3     
  31 O31            2.2210     5.4978     0.0089 O.3     
  32 C32            3.4769     6.1794     0.0002 C.3     
  33 H33           -0.9344    -0.5420     0.0084 H       
  34 H34            1.1751    -1.8000    -0.0185 H       
  35 H35            4.5103     1.6241    -0.0322 H       
  36 H36            4.4024     4.0574    -0.0190 H       
  37 H37            0.1306     3.9474     0.0219 H       
  38 H38            2.9853    -2.4877     0.8512 H       
  39 H39            2.9687    -2.4787    -0.9287 H       
  40 H40            8.7823    -4.3022     1.0738 H       
  41 H41            8.3686    -4.1353     3.4767 H       
  42 H42            3.8083    -1.1949     7.5228 H       
  43 H43            2.8918    -2.6583     7.0784 H       
  44 H44            6.2843    -4.3623     9.0204 H       
  45 H45            7.3703    -2.9501     8.9396 H       
  46 H46            5.3354    -2.6755    10.4760 H       
  47 H47            5.5251    -1.4139     9.2329 H       
  48 H48            3.2575    -2.4658     9.4717 H       
  49 H49            4.1642    -2.4187     4.6867 H       
  50 H50            4.0499     5.8967     0.8833 H       
  51 H51            4.0327     5.9056    -0.8966 H       
  52 H52            3.3061     7.2559     0.0072 H       
@<TRIPOS>BOND
   1    1    2 ar
   2    1   10 ar
   3    2    3 ar
   4    2   33 1
   5    3    4 ar
   6    3   34 1
   7    4    5 ar
   8    4   11 1
   9    5    6 ar
  10    5   10 ar
  11    6    7 ar
  12    6   35 1
  13    7    8 ar
  14    7   36 1
  15    8    9 ar
  16    8   31 1
  17    9   10 ar
  18    9   37 1
  19   11   12 1
  20   12   21 1
  21   12   38 1
  22   12   39 1
  23   13   14 1
  24   13   18 1
  25   13   20 2
  26   14   15 2
  27   14   40 1
  28   15   16 1
  29   15   41 1
  30   16   17 2
  31   16   29 1
  32   17   18 1
  33   18   21 1
  34   19   20 1
  35   19   21 2
  36   22   23 1
  37   22   27 1
  38   22   42 1
  39   22   43 1
  40   23   24 2
  41   23   28 1
  42   24   25 1
  43   24   30 1
  44   25   26 1
  45   25   44 1
  46   25   45 1
  47   26   27 1
  48   26   46 1
  49   26   47 1
  50   27   48 1
  51   28   29 2
  52   28   49 1
  53   29   30 1
  54   31   32 1
  55   32   50 1
  56   32   51 1
  57   32   52 1

#	End of record

