#	Name: ASD01880438
#	Creating user name:	WinNT
#	Creation time:	15. 06. 2019 19:40

#	Modifying user name:	WinNT
#	Modification time:	15. 06. 2019 19:40

#	Program:	/corina/corina34_cracker 3.40 0067  02.08.2006

@<TRIPOS>MOLECULE
ASD01880438
  47   51    0    0    0
SMALL
NO_CHARGES


@<TRIPOS>ATOM
   1 C1            -0.0169     1.3927     0.0097 C.ar    
   2 C2             0.0021    -0.0041     0.0020 C.ar    
   3 C3             1.2135    -0.6907    -0.0132 C.ar    
   4 C4             2.4022     0.0193    -0.0208 C.ar    
   5 C5             2.3727     1.4246    -0.0130 C.ar    
   6 C6             1.1522     2.0999     0.0023 C.ar    
   7 N7             3.6286    -0.6376    -0.0355 N.pl3   
   8 C8             4.7929     0.0687    -0.0425 C.2     
   9 N9             4.8015     1.4562    -0.0349 N.am    
  10 C10            3.6502     2.1585    -0.0210 C.2     
  11 N11            3.9493    -2.0026    -0.0456 N.2     
  12 C12            5.2606    -2.1201    -0.0583 C.2     
  13 C13            5.8179    -0.8301    -0.0567 C.2     
  14 C14            6.0812     2.1693    -0.0431 C.3     
  15 O15            3.6662     3.3751    -0.0143 O.2     
  16 C16           -1.2742    -0.7594     0.0106 C.ar    
  17 C17            6.0195    -3.3953    -0.0712 C.ar    
  18 C18            5.3414    -4.6124    -0.0710 C.ar    
  19 C19            6.0523    -5.7956    -0.0830 C.ar    
  20 C20            7.4351    -5.7743    -0.0951 C.ar    
  21 C21            8.1135    -4.5686    -0.0949 C.ar    
  22 C22            7.4128    -3.3798    -0.0892 C.ar    
  23 C23            5.3203    -7.1128    -0.0823 C.3     
  24 C24           -2.4901    -0.0782     0.0264 C.ar    
  25 C25           -3.6747    -0.7862     0.0339 C.ar    
  26 C26           -3.6568    -2.1694     0.0262 C.ar    
  27 C27           -2.4530    -2.8508     0.0106 C.ar    
  28 C28           -1.2623    -2.1531    -0.0028 C.ar    
  29 H29           -0.9612     1.9167     0.0170 H       
  30 H30            1.2257    -1.7706    -0.0188 H       
  31 H31            1.1314     3.1797     0.0087 H       
  32 H32            6.8715    -0.5928    -0.0654 H       
  33 H33            6.3888     2.3519    -1.0727 H       
  34 H34            5.9702     3.1208     0.4771 H       
  35 H35            6.8366     1.5660     0.4603 H       
  36 H36            4.2616    -4.6301    -0.0612 H       
  37 H37            7.9874    -6.7024    -0.1045 H       
  38 H38            9.1934    -4.5578    -0.1037 H       
  39 H39            7.9434    -2.4391    -0.0894 H       
  40 H40            5.1344    -7.4257    -1.1098 H       
  41 H41            5.9265    -7.8651     0.4225 H       
  42 H42            4.3707    -7.0005     0.4408 H       
  43 H43           -2.5053     1.0017     0.0331 H       
  44 H44           -4.6174    -0.2595     0.0461 H       
  45 H45           -4.5862    -2.7195     0.0329 H       
  46 H46           -2.4450    -3.9307     0.0051 H       
  47 H47           -0.3231    -2.6861    -0.0153 H       
@<TRIPOS>BOND
   1    1    2 ar
   2    1    6 ar
   3    1   29 1
   4    2    3 ar
   5    2   16 1
   6    3    4 ar
   7    3   30 1
   8    4    5 ar
   9    4    7 1
  10    5    6 ar
  11    5   10 1
  12    6   31 1
  13    7    8 1
  14    7   11 1
  15    8    9 1
  16    8   13 2
  17    9   10 am
  18    9   14 1
  19   10   15 2
  20   11   12 2
  21   12   13 1
  22   12   17 1
  23   13   32 1
  24   14   33 1
  25   14   34 1
  26   14   35 1
  27   16   24 ar
  28   16   28 ar
  29   17   18 ar
  30   17   22 ar
  31   18   19 ar
  32   18   36 1
  33   19   20 ar
  34   19   23 1
  35   20   21 ar
  36   20   37 1
  37   21   22 ar
  38   21   38 1
  39   22   39 1
  40   23   40 1
  41   23   41 1
  42   23   42 1
  43   24   25 ar
  44   24   43 1
  45   25   26 ar
  46   25   44 1
  47   26   27 ar
  48   26   45 1
  49   27   28 ar
  50   27   46 1
  51   28   47 1

#	End of record

