#	Name: ASD08150148
#	Creating user name:	WinNT
#	Creation time:	15. 06. 2019 21:15

#	Modifying user name:	WinNT
#	Modification time:	15. 06. 2019 21:15

#	Program:	/corina/corina34_cracker 3.40 0067  02.08.2006

@<TRIPOS>MOLECULE
ASD08150148
  35   37    0    0    0
SMALL
NO_CHARGES


@<TRIPOS>ATOM
   1 O1            -0.0161     1.3334     0.0094 O.3     
   2 C2             0.0021    -0.0041     0.0020 C.2     
   3 N3             1.2348    -0.5294    -0.0126 N.am    
   4 C4             2.2183     0.5645    -0.0161 C.3     
   5 C5             1.3508     1.8379    -0.0010 C.3     
   6 O6            -1.0069    -0.6808     0.0084 O.2     
   7 C7             3.0750     0.5128    -1.2827 C.3     
   8 C8             3.0861    -3.5909     0.0552 C.ar    
   9 N9             2.7955    -2.2986     0.0637 N.ar    
  10 C10            1.5352    -1.8868    -0.0223 C.ar    
  11 C11            0.5179    -2.8355    -0.1221 C.ar    
  12 C12            0.8633    -4.1754    -0.1275 C.ar    
  13 N13            2.1418    -4.5152    -0.0384 N.ar    
  14 N14            4.4099    -3.9853     0.1406 N.3     
  15 C15            4.5257    -5.4506     0.1157 C.3     
  16 C16            6.0057    -5.8408     0.1518 C.3     
  17 O17            6.6162    -5.2691     1.3119 O.3     
  18 C18            6.5224    -3.8431     1.3682 C.3     
  19 C19            5.0477    -3.4326     1.3444 C.3     
  20 Cl20          -0.3634    -5.3977    -0.2490 Cl      
  21 H21            2.8457     0.5180     0.8740 H       
  22 H22            1.5314     2.4339    -0.8956 H       
  23 H23            1.5485     2.4243     0.8964 H       
  24 H24            2.4343     0.6108    -2.1590 H       
  25 H25            3.7964     1.3297    -1.2669 H       
  26 H26            3.6047    -0.4389    -1.3244 H       
  27 H27           -0.5160    -2.5313    -0.1931 H       
  28 H28            4.0173    -5.8707     0.9836 H       
  29 H29            4.0698    -5.8364    -0.7961 H       
  30 H30            6.0950    -6.9265     0.1912 H       
  31 H31            6.5028    -5.4663    -0.7430 H       
  32 H32            6.9854    -3.4839     2.2872 H       
  33 H33            7.0345    -3.4105     0.5087 H       
  34 H34            4.9727    -2.3453     1.3295 H       
  35 H35            4.5476    -3.8204     2.2319 H       
@<TRIPOS>BOND
   1    1    2 1
   2    1    5 1
   3    2    3 am
   4    2    6 2
   5    3    4 1
   6    3   10 1
   7    4    5 1
   8    4    7 1
   9    4   21 1
  10    5   22 1
  11    5   23 1
  12    7   24 1
  13    7   25 1
  14    7   26 1
  15    8    9 ar
  16    8   13 ar
  17    8   14 1
  18    9   10 ar
  19   10   11 ar
  20   11   12 ar
  21   11   27 1
  22   12   13 ar
  23   12   20 1
  24   14   15 1
  25   14   19 1
  26   15   16 1
  27   15   28 1
  28   15   29 1
  29   16   17 1
  30   16   30 1
  31   16   31 1
  32   17   18 1
  33   18   19 1
  34   18   32 1
  35   18   33 1
  36   19   34 1
  37   19   35 1

#	End of record

