#	Name: ASD07931901
#	Creating user name:	WinNT
#	Creation time:	15. 06. 2019 21:13

#	Modifying user name:	WinNT
#	Modification time:	15. 06. 2019 21:13

#	Program:	/corina/corina34_cracker 3.40 0067  02.08.2006

@<TRIPOS>MOLECULE
ASD07931901
  32   32    0    0    0
SMALL
NO_CHARGES


@<TRIPOS>ATOM
   1 C1            -0.0187     1.5258     0.0104 C.3     
   2 C2             0.0021    -0.0041     0.0020 C.3     
   3 C3             0.6310    -0.5127     1.3007 C.3     
   4 C4             0.6518    -2.0426     1.2923 C.3     
   5 C5             1.2712    -2.5436     2.5715 C.2     
   6 C6             0.6169    -3.3886     3.3291 C.2     
   7 O7             1.3220     2.0204     0.0003 O.3     
   8 C8            -0.7475     2.0250    -1.2105 C.ar    
   9 C9            -2.0645     2.4330    -1.1105 C.ar    
  10 C10           -2.7331     2.8909    -2.2305 C.ar    
  11 C11           -2.0846     2.9412    -3.4502 C.ar    
  12 C12           -0.7673     2.5340    -3.5499 C.ar    
  13 C13           -0.0974     2.0802    -2.4291 C.ar    
  14 C14           -2.8138     3.4394    -4.6713 C.3     
  15 F15           -2.6400     4.8228    -4.7861 F       
  16 F16           -2.3012     2.8089    -5.8102 F       
  17 F17           -4.1770     3.1490    -4.5512 F       
  18 H18           -0.5289     1.8773     0.9072 H       
  19 H19           -1.0175    -0.3808    -0.0798 H       
  20 H20            0.5883    -0.3548    -0.8473 H       
  21 H21            1.6506    -0.1360     1.3826 H       
  22 H22            0.0448    -0.1620     2.1500 H       
  23 H23           -0.3678    -2.4193     1.2104 H       
  24 H24            1.2380    -2.3933     0.4429 H       
  25 H25            2.2547    -2.2060     2.8636 H       
  26 H26           -0.3665    -3.7261     3.0369 H       
  27 H27            1.0609    -3.7476     4.2458 H       
  28 H28            1.8365     1.7462    -0.7712 H       
  29 H29           -2.5712     2.3937    -0.1576 H       
  30 H30           -3.7623     3.2090    -2.1525 H       
  31 H31           -0.2608     2.5730    -4.5030 H       
  32 H32            0.9328     1.7656    -2.5063 H       
@<TRIPOS>BOND
   1    1    2 1
   2    1    7 1
   3    1    8 1
   4    1   18 1
   5    2    3 1
   6    2   19 1
   7    2   20 1
   8    3    4 1
   9    3   21 1
  10    3   22 1
  11    4    5 1
  12    4   23 1
  13    4   24 1
  14    5    6 2
  15    5   25 1
  16    6   26 1
  17    6   27 1
  18    7   28 1
  19    8    9 ar
  20    8   13 ar
  21    9   10 ar
  22    9   29 1
  23   10   11 ar
  24   10   30 1
  25   11   12 ar
  26   11   14 1
  27   12   13 ar
  28   12   31 1
  29   13   32 1
  30   14   15 1
  31   14   16 1
  32   14   17 1

#	End of record

