#	Name: ASD04880371
#	Creating user name:	WinNT
#	Creation time:	15. 06. 2019 20:53

#	Modifying user name:	WinNT
#	Modification time:	15. 06. 2019 20:53

#	Program:	/corina/corina34_cracker 3.40 0067  02.08.2006

@<TRIPOS>MOLECULE
ASD04880371
  54   57    0    0    0
SMALL
NO_CHARGES


@<TRIPOS>ATOM
   1 C1            -0.0054     1.3708     0.2981 C.ar    
   2 C2             0.0100    -0.0223     0.2647 C.ar    
   3 C3            -1.1785    -0.7257     0.2179 C.ar    
   4 C4            -2.3945    -0.0366     0.2043 C.ar    
   5 C5            -2.4023     1.3599     0.2380 C.ar    
   6 C6            -1.2119     2.0549     0.2899 C.ar    
   7 C7            -3.6655    -0.7816     0.1540 C.2     
   8 N8            -3.7742    -2.0652     0.1202 N.2     
   9 N9            -5.0891    -2.5241     0.0762 N.am    
  10 C10           -5.9975    -1.3664     0.0816 C.3     
  11 C11           -5.0426    -0.1576     0.1408 C.3     
  12 C12           -5.4672    -3.8170     0.0350 C.2     
  13 O13           -6.6459    -4.1083     0.1025 O.2     
  14 C14           -4.4493    -4.8810    -0.0923 C.ar    
  15 C15           -3.1114    -4.5482    -0.3135 C.ar    
  16 C16           -4.8204    -6.2221     0.0138 C.ar    
  17 C17           -3.8632    -7.2117    -0.1058 C.ar    
  18 C18           -2.5385    -6.8734    -0.3305 C.ar    
  19 C19           -2.1653    -5.5450    -0.4311 C.ar    
  20 F20           -4.2195    -8.5108    -0.0030 F       
  21 C21           -5.2803     0.6428     1.3953 C.ar    
  22 C22           -5.6581     1.9696     1.3075 C.ar    
  23 C23           -5.1260     0.0486     2.6339 C.ar    
  24 C24           -5.3441     0.7829     3.7847 C.ar    
  25 C25           -5.7159     2.1114     3.6969 C.ar    
  26 C26           -5.8761     2.7038     2.4582 C.ar    
  27 C27           -5.9541     2.9116     4.9514 C.3     
  28 O28            1.1648     2.0609     0.3445 O.3     
  29 C29            1.0763     3.4868     0.3769 C.3     
  30 O30            1.1949    -0.6896     0.2776 O.3     
  31 C31            1.1361    -2.1169     0.2415 C.3     
  32 H32           -1.1678    -1.8053     0.1917 H       
  33 H33           -3.3402     1.8952     0.2275 H       
  34 H34           -1.2192     3.1345     0.3163 H       
  35 H35           -6.5950    -1.3434    -0.8298 H       
  36 H36           -6.6397    -1.3869     0.9620 H       
  37 H37           -5.1641     0.4692    -0.7426 H       
  38 H38           -2.8179    -3.5119    -0.3928 H       
  39 H39           -5.8529    -6.4858     0.1893 H       
  40 H40           -1.7935    -7.6498    -0.4233 H       
  41 H41           -1.1311    -5.2879    -0.6063 H       
  42 H42           -5.7827     2.4327     0.3398 H       
  43 H43           -4.8355    -0.9893     2.7025 H       
  44 H44           -5.2242     0.3185     4.7523 H       
  45 H45           -6.1667     3.7418     2.3896 H       
  46 H46           -5.0222     3.3822     5.2646 H       
  47 H47           -6.7015     3.6805     4.7555 H       
  48 H48           -6.3110     2.2510     5.7415 H       
  49 H49            0.5637     3.8394    -0.5181 H       
  50 H50            0.5186     3.7962     1.2608 H       
  51 H51            2.0792     3.9123     0.4126 H       
  52 H52            2.1476    -2.5227     0.2565 H       
  53 H53            0.5860    -2.4799     1.1097 H       
  54 H54            0.6298    -2.4368    -0.6692 H       
@<TRIPOS>BOND
   1    1    2 ar
   2    1   28 1
   3    1    6 ar
   4    2    3 ar
   5    2   30 1
   6    3    4 ar
   7    3   32 1
   8    4    5 ar
   9    4    7 1
  10    5    6 ar
  11    5   33 1
  12    6   34 1
  13    7    8 2
  14    7   11 1
  15    8    9 1
  16    9   10 1
  17    9   12 am
  18   10   11 1
  19   10   35 1
  20   10   36 1
  21   11   21 1
  22   11   37 1
  23   12   13 2
  24   12   14 1
  25   14   15 ar
  26   14   16 ar
  27   15   19 ar
  28   15   38 1
  29   16   17 ar
  30   16   39 1
  31   17   18 ar
  32   17   20 1
  33   18   19 ar
  34   18   40 1
  35   19   41 1
  36   21   22 ar
  37   21   23 ar
  38   22   26 ar
  39   22   42 1
  40   23   24 ar
  41   23   43 1
  42   24   25 ar
  43   24   44 1
  44   25   26 ar
  45   25   27 1
  46   26   45 1
  47   27   46 1
  48   27   47 1
  49   27   48 1
  50   28   29 1
  51   29   49 1
  52   29   50 1
  53   29   51 1
  54   30   31 1
  55   31   52 1
  56   31   53 1
  57   31   54 1

#	End of record

