#	Name: ASD01890042
#	Creating user name:	WinNT
#	Creation time:	15. 06. 2019 19:50

#	Modifying user name:	WinNT
#	Modification time:	15. 06. 2019 19:50

#	Program:	/corina/corina34_cracker 3.40 0067  02.08.2006

@<TRIPOS>MOLECULE
ASD01890042
  38   40    0    0    0
SMALL
NO_CHARGES


@<TRIPOS>ATOM
   1 C1            -0.0167     1.3836     0.0096 C.ar    
   2 C2             0.0021    -0.0041     0.0020 C.ar    
   3 C3            -1.1915    -0.7068     0.0101 C.ar    
   4 C4            -2.4163    -0.0088     0.0260 C.ar    
   5 C5            -2.4201     1.3773     0.0335 C.ar    
   6 C6            -1.2191     2.0680     0.0306 C.ar    
   7 C7            -1.5444    -2.1423     0.0059 C.2     
   8 N8            -2.8849    -2.2539     0.0186 N.am    
   9 C9            -3.4712    -1.0433     0.0309 C.2     
  10 O10           -0.7561    -3.0661    -0.0072 O.2     
  11 Cl11           1.4780     2.2664     0.0001 Cl      
  12 O12           -4.6678    -0.8354     0.0446 O.2     
  13 C13           -3.6107    -3.5265     0.0190 C.3     
  14 C14           -3.8491    -3.9772     1.4615 C.3     
  15 C15           -4.7773    -2.9816     2.1602 C.3     
  16 C16           -4.4856    -5.3432     1.4623 C.ar    
  17 C17           -3.8472    -6.4026     2.0797 C.ar    
  18 C18           -4.4305    -7.6556     2.0808 C.ar    
  19 C19           -5.6536    -7.8495     1.4638 C.ar    
  20 C20           -6.2920    -6.7889     0.8461 C.ar    
  21 C21           -5.7104    -5.5351     0.8506 C.ar    
  22 Cl22          -6.3866    -9.4232     1.4642 Cl      
  23 C23           -4.9141    -3.3569     3.6133 C.2     
  24 O24           -4.3292    -4.3216     4.0457 O.2     
  25 O25           -5.6857    -2.6193     4.4272 O.3     
  26 H26            0.9432    -0.5337    -0.0105 H       
  27 H27           -3.3557     1.9168     0.0453 H       
  28 H28           -1.2215     3.1480     0.0368 H       
  29 H29           -4.5689    -3.3984    -0.4847 H       
  30 H30           -3.0228    -4.2803    -0.5047 H       
  31 H31           -2.8972    -4.0197     1.9909 H       
  32 H32           -4.3588    -1.9782     2.0819 H       
  33 H33           -5.7581    -3.0044     1.6852 H       
  34 H34           -2.8923    -6.2512     2.5610 H       
  35 H35           -3.9315    -8.4833     2.5629 H       
  36 H36           -7.2468    -6.9397     0.3643 H       
  37 H37           -6.2086    -4.7071     0.3684 H       
  38 H38           -5.7424    -2.8992     5.3510 H       
@<TRIPOS>BOND
   1    1    2 ar
   2    1   11 1
   3    1    6 ar
   4    2    3 ar
   5    2   26 1
   6    3    4 ar
   7    3    7 1
   8    4    5 ar
   9    4    9 1
  10    5    6 ar
  11    5   27 1
  12    6   28 1
  13    7    8 am
  14    7   10 2
  15    8    9 am
  16    8   13 1
  17    9   12 2
  18   13   14 1
  19   13   29 1
  20   13   30 1
  21   14   15 1
  22   14   16 1
  23   14   31 1
  24   15   23 1
  25   15   32 1
  26   15   33 1
  27   16   17 ar
  28   16   21 ar
  29   17   18 ar
  30   17   34 1
  31   18   19 ar
  32   18   35 1
  33   19   20 ar
  34   19   22 1
  35   20   21 ar
  36   20   36 1
  37   21   37 1
  38   23   24 2
  39   23   25 1
  40   25   38 1

#	End of record

