#	Name: ASD00990001
#	Creating user name:	WinNT
#	Creation time:	15. 06. 2019 18:53

#	Modifying user name:	WinNT
#	Modification time:	15. 06. 2019 18:53

#	Program:	/corina/corina34_cracker 3.40 0067  02.08.2006

@<TRIPOS>MOLECULE
ASD00990001
  17   16    0    0    0
SMALL
NO_CHARGES


@<TRIPOS>ATOM
   1 C1            -0.0178     1.4648     0.0101 C.3     
   2 N2             0.0021    -0.0041     0.0020 N.3     
   3 C3             1.4175     1.9944    -0.0008 C.3     
   4 C4             2.1195     1.5919     1.2978 C.3     
   5 S5             3.8213     2.2198     1.2849 S.3     
   6 C6            -0.7467     1.9640    -1.2108 C.2     
   7 O7            -0.8847     1.2416    -2.1695 O.2     
   8 O8            -1.2426     3.2111    -1.2332 O.3     
   9 H9            -0.5280     1.8163     0.9069 H       
  10 H10           -0.9320    -0.3788     0.0739 H       
  11 H11            0.4701    -0.3548    -0.8202 H       
  12 H12            1.9544     1.5716    -0.8500 H       
  13 H13            1.4033     3.0811    -0.0844 H       
  14 H14            1.5826     2.0146     2.1471 H       
  15 H15            2.1337     0.5052     1.3814 H       
  16 H16            4.3081     1.7986     2.4658 H       
  17 H17           -1.7022     3.4864    -2.0383 H       
@<TRIPOS>BOND
   1    1    2 1
   2    1    3 1
   3    1    6 1
   4    1    9 1
   5    2   10 1
   6    2   11 1
   7    3    4 1
   8    3   12 1
   9    3   13 1
  10    4    5 1
  11    4   14 1
  12    4   15 1
  13    5   16 1
  14    6    7 2
  15    6    8 1
  16    8   17 1

#	End of record

