#	Name: ASD03092070
#	Creating user name:	WinNT
#	Creation time:	15. 06. 2019 20:31

#	Modifying user name:	WinNT
#	Modification time:	15. 06. 2019 20:31

#	Program:	/corina/corina34_cracker 3.40 0067  02.08.2006

@<TRIPOS>MOLECULE
ASD03092070
  40   42    0    0    0
SMALL
NO_CHARGES


@<TRIPOS>ATOM
   1 N1             0.3255     1.0020    -0.2100 N.pl3   
   2 C2             0.0478    -0.3049     0.0616 C.2     
   3 C3            -1.3108    -0.4447     0.0543 C.2     
   4 C4            -1.8686     0.8084    -0.2287 C.2     
   5 N5            -0.8920     1.6730    -0.3809 N.2     
   6 N6            -3.2361     1.0925    -0.3273 N.pl3   
   7 C7            -3.6651     2.4105    -0.5008 C.ar    
   8 C8            -4.8531     2.6730    -1.1709 C.ar    
   9 C9            -5.2757     3.9782    -1.3415 C.ar    
  10 C10           -4.5164     5.0232    -0.8461 C.ar    
  11 C11           -2.9070     3.4607     0.0014 C.ar    
  12 C12            1.0366    -1.3751     0.3169 C.ar    
  13 C13            1.6600     1.5996    -0.3007 C.3     
  14 C14            0.7058    -2.7209     0.1230 C.ar    
  15 C15            1.6586    -3.6865     0.3733 C.ar    
  16 N16            2.8660    -3.3551     0.7893 N.ar    
  17 C17            3.2190    -2.0987     0.9847 C.ar    
  18 C18            2.3309    -1.0694     0.7535 C.ar    
  19 C19            4.6136    -1.7840     1.4614 C.3     
  20 O20            1.6744     2.5770    -1.3431 O.3     
  21 C21           -3.3310     4.7650    -0.1773 C.ar    
  22 Cl22          -6.7606     4.3063    -2.1789 Cl      
  23 F23           -2.5914     5.7875     0.3050 F       
  24 C24            2.0109     2.2681     1.0301 C.3     
  25 H25           -1.8575    -1.3585     0.2345 H       
  26 H26           -3.8857     0.3740    -0.2750 H       
  27 H27           -5.4462     1.8580    -1.5586 H       
  28 H28           -4.8481     6.0421    -0.9812 H       
  29 H29           -1.9853     3.2592     0.5270 H       
  30 H30            2.3919     0.8225    -0.5210 H       
  31 H31           -0.2807    -2.9994    -0.2170 H       
  32 H32            1.4127    -4.7279     0.2270 H       
  33 H33            2.6266    -0.0434     0.9156 H       
  34 H34            5.2690    -1.6463     0.6015 H       
  35 H35            4.5969    -0.8704     2.0557 H       
  36 H36            4.9834    -2.6078     2.0719 H       
  37 H37            1.0460     3.3004    -1.2127 H       
  38 H38            1.9999     1.5226     1.8252 H       
  39 H39            3.0038     2.7128     0.9626 H       
  40 H40            1.2790     3.0452     1.2504 H       
@<TRIPOS>BOND
   1    1    2 1
   2    1   13 1
   3    1    5 1
   4    2    3 2
   5    2   12 1
   6    3    4 1
   7    3   25 1
   8    4    5 2
   9    4    6 1
  10    6    7 1
  11    6   26 1
  12    7    8 ar
  13    7   11 ar
  14    8    9 ar
  15    8   27 1
  16    9   10 ar
  17    9   22 1
  18   10   21 ar
  19   10   28 1
  20   11   21 ar
  21   11   29 1
  22   12   14 ar
  23   12   18 ar
  24   13   20 1
  25   13   24 1
  26   13   30 1
  27   14   15 ar
  28   14   31 1
  29   15   16 ar
  30   15   32 1
  31   16   17 ar
  32   17   18 ar
  33   17   19 1
  34   18   33 1
  35   19   34 1
  36   19   35 1
  37   19   36 1
  38   20   37 1
  39   21   23 1
  40   24   38 1
  41   24   39 1
  42   24   40 1

#	End of record

