#	Name: ASD01812843
#	Creating user name:	WinNT
#	Creation time:	15. 06. 2019 19:29

#	Modifying user name:	WinNT
#	Modification time:	15. 06. 2019 19:29

#	Program:	/corina/corina34_cracker 3.40 0067  02.08.2006

@<TRIPOS>MOLECULE
ASD01812843
  51   55    0    0    0
SMALL
NO_CHARGES


@<TRIPOS>ATOM
   1 N1            -0.0158     1.3130     0.0093 N.ar    
   2 C2             0.0021    -0.0041     0.0020 C.ar    
   3 N3             1.1297    -0.6935    -0.0120 N.ar    
   4 C4             2.2939    -0.0791    -0.0198 C.ar    
   5 C5             2.3345     1.3180    -0.0132 C.ar    
   6 C6             1.1137     2.0142     0.0022 C.ar    
   7 C7             3.7271    -0.5440    -0.0356 C.3     
   8 N8             4.5519     0.6704    -0.0372 N.am    
   9 C9             3.7404     1.7431    -0.0242 C.2     
  10 C10            6.0164     0.7078    -0.0500 C.3     
  11 C11            6.5060     0.7273    -1.4751 C.ar    
  12 C12            6.6993     1.9352    -2.1208 C.ar    
  13 C13            7.1475     1.9590    -3.4259 C.ar    
  14 C14            7.4054     0.7631    -4.0932 C.ar    
  15 C15            7.2089    -0.4508    -3.4378 C.ar    
  16 C16            6.7658    -0.4626    -2.1307 C.ar    
  17 O17            1.0885     3.3666     0.0097 O.3     
  18 O18            4.1168     2.8993    -0.0215 O.2     
  19 C19           -0.1242     3.9827     0.0246 C.ar    
  20 C20           -0.7325     4.2911     1.2340 C.ar    
  21 C21           -1.9658     4.9182     1.2469 C.ar    
  22 C22           -2.5935     5.2377     0.0550 C.ar    
  23 C23           -1.9887     4.9311    -1.1521 C.ar    
  24 C24           -0.7528     4.3092    -1.1695 C.ar    
  25 F25           -3.7981     5.8492     0.0697 F       
  26 F26           -0.1208     3.9787     2.3974 F       
  27 F27           -0.1607     4.0148    -2.3476 F       
  28 C28            7.8869     0.7823    -5.4964 C.ar    
  29 C29            8.0892     1.9906    -6.1696 C.ar    
  30 C30            8.5378     1.9631    -7.4739 C.ar    
  31 N31            8.7750     0.8178    -8.0845 N.ar    
  32 C32            8.5971    -0.3439    -7.4853 C.ar    
  33 C33            8.1562    -0.4069    -6.1792 C.ar    
  34 C34            8.8852    -1.6189    -8.2351 C.3     
  35 H35           -0.9363    -0.5387     0.0081 H       
  36 H36            3.9378    -1.1389     0.8531 H       
  37 H37            3.9211    -1.1299    -0.9340 H       
  38 H38            6.3615     1.6044     0.4651 H       
  39 H39            6.4068    -0.1750     0.4563 H       
  40 H40            6.4987     2.8614    -1.6028 H       
  41 H41            7.2977     2.9027    -3.9292 H       
  42 H42            7.4072    -1.3806    -3.9502 H       
  43 H43            6.6174    -1.4028    -1.6204 H       
  44 H44           -2.4393     5.1583     2.1874 H       
  45 H45           -2.4801     5.1812    -2.0808 H       
  46 H46            7.8967     2.9317    -5.6760 H       
  47 H47            8.6966     2.8915    -8.0024 H       
  48 H48            8.0174    -1.3613    -5.6931 H       
  49 H49            9.9263    -1.9030    -8.0822 H       
  50 H50            8.2343    -2.4120    -7.8669 H       
  51 H51            8.7033    -1.4641    -9.2986 H       
@<TRIPOS>BOND
   1    1    2 ar
   2    1    6 ar
   3    2    3 ar
   4    2   35 1
   5    3    4 ar
   6    4    7 1
   7    4    5 ar
   8    5    6 ar
   9    5    9 1
  10    6   17 1
  11    7    8 1
  12    7   36 1
  13    7   37 1
  14    8    9 am
  15    8   10 1
  16    9   18 2
  17   10   11 1
  18   10   38 1
  19   10   39 1
  20   11   12 ar
  21   11   16 ar
  22   12   13 ar
  23   12   40 1
  24   13   14 ar
  25   13   41 1
  26   14   15 ar
  27   14   28 1
  28   15   16 ar
  29   15   42 1
  30   16   43 1
  31   17   19 1
  32   19   20 ar
  33   19   24 ar
  34   20   21 ar
  35   20   26 1
  36   21   22 ar
  37   21   44 1
  38   22   23 ar
  39   22   25 1
  40   23   24 ar
  41   23   45 1
  42   24   27 1
  43   28   29 ar
  44   28   33 ar
  45   29   30 ar
  46   29   46 1
  47   30   31 ar
  48   30   47 1
  49   31   32 ar
  50   32   33 ar
  51   32   34 1
  52   33   48 1
  53   34   49 1
  54   34   50 1
  55   34   51 1

#	End of record

