#	Name: ASD08150095
#	Creating user name:	WinNT
#	Creation time:	15. 06. 2019 21:15

#	Modifying user name:	WinNT
#	Modification time:	15. 06. 2019 21:15

#	Program:	/corina/corina34_cracker 3.40 0067  02.08.2006

@<TRIPOS>MOLECULE
ASD08150095
  44   48    0    0    0
SMALL
NO_CHARGES


@<TRIPOS>ATOM
   1 N1            -0.0155     1.2942     0.0092 N.2     
   2 C2             0.0021    -0.0041     0.0020 C.2     
   3 N3             1.1487    -0.7361    -0.0124 N.am    
   4 C4             2.3560    -0.1245    -0.0206 C.2     
   5 C5             2.3702     1.3455    -0.0133 C.ar    
   6 C6             3.5601     2.0709    -0.0212 C.ar    
   7 C7             3.5157     3.4477    -0.0143 C.ar    
   8 C8             2.2978     4.1151     0.0008 C.ar    
   9 C9             1.1111     3.4174     0.0089 C.ar    
  10 C10            1.1297     2.0210     0.0021 C.ar    
  11 O11            3.3901    -0.7667    -0.0331 O.2     
  12 C12           -1.3145    -0.7373     0.0106 C.3     
  13 S13           -2.6718     0.4600     0.0300 S.3     
  14 N14           -5.9165     1.0935     0.0643 N.2     
  15 C15           -7.2137     0.9889     0.0762 C.2     
  16 N16           -7.5749    -0.3256     0.0732 N.pl3   
  17 C17           -6.4218    -1.0688     0.0585 C.ar    
  18 N18           -6.1429    -2.3684     0.0491 N.ar    
  19 C19           -4.8947    -2.7870     0.0348 C.ar    
  20 N20           -3.8685    -1.9564     0.0285 N.ar    
  21 C21           -4.0491    -0.6389     0.0373 C.ar    
  22 C22           -5.3646    -0.1434     0.0530 C.ar    
  23 N23            2.2755     5.5951     0.0090 N.pl3   
  24 O24            3.3210     6.2200     0.0023 O.2     
  25 O25            1.2117     6.1881     0.0223 O.2     
  26 C26            1.0791    -2.1353    -0.0184 C.ar    
  27 C27            1.0561    -2.8366     1.1814 C.ar    
  28 C28            0.9875    -4.2168     1.1715 C.ar    
  29 C29            0.9423    -4.8995    -0.0304 C.ar    
  30 C30            0.9656    -4.2042    -1.2252 C.ar    
  31 C31            1.0274    -2.8240    -1.2224 C.ar    
  32 Cl32           1.1139    -1.9800     2.6902 Cl      
  33 H33            4.5102     1.5573    -0.0323 H       
  34 H34            4.4360     4.0130    -0.0204 H       
  35 H35            0.1702     3.9474     0.0210 H       
  36 H36           -1.3904    -1.3582    -0.8820 H       
  37 H37           -1.3735    -1.3677     0.8979 H       
  38 H38           -7.9024     1.8208     0.0868 H       
  39 H39           -8.4810    -0.6719     0.0801 H       
  40 H40           -4.7031    -3.8498     0.0278 H       
  41 H41            0.9695    -4.7628     2.1031 H       
  42 H42            0.8890    -5.9781    -0.0357 H       
  43 H43            0.9309    -4.7405    -2.1620 H       
  44 H44            1.0404    -2.2817    -2.1563 H       
@<TRIPOS>BOND
   1    1    2 2
   2    1   10 1
   3    2    3 1
   4    2   12 1
   5    3    4 am
   6    3   26 1
   7    4    5 1
   8    4   11 2
   9    5    6 ar
  10    5   10 ar
  11    6    7 ar
  12    6   33 1
  13    7    8 ar
  14    7   34 1
  15    8    9 ar
  16    8   23 1
  17    9   10 ar
  18    9   35 1
  19   12   13 1
  20   12   36 1
  21   12   37 1
  22   13   21 1
  23   14   15 2
  24   14   22 1
  25   15   16 1
  26   15   38 1
  27   16   17 1
  28   16   39 1
  29   17   18 ar
  30   17   22 ar
  31   18   19 ar
  32   19   20 ar
  33   19   40 1
  34   20   21 ar
  35   21   22 ar
  36   23   24 2
  37   23   25 2
  38   26   27 ar
  39   26   31 ar
  40   27   28 ar
  41   27   32 1
  42   28   29 ar
  43   28   41 1
  44   29   30 ar
  45   29   42 1
  46   30   31 ar
  47   30   43 1
  48   31   44 1

#	End of record

