#	Name: ASD02448079
#	Creating user name:	WinNT
#	Creation time:	15. 06. 2019 20:21

#	Modifying user name:	WinNT
#	Modification time:	15. 06. 2019 20:21

#	Program:	/corina/corina34_cracker 3.40 0067  02.08.2006

@<TRIPOS>MOLECULE
ASD02448079
  80   85    0    0    0
SMALL
NO_CHARGES


@<TRIPOS>ATOM
   1 C1            -0.0279     1.3593    -0.2236 C.ar    
   2 C2             0.0061    -0.0203    -0.2587 C.ar    
   3 C3             1.1977    -0.6917    -0.0201 C.ar    
   4 C4             2.3552     0.0239     0.2542 C.ar    
   5 C5             2.3220     1.4035     0.2895 C.ar    
   6 C6             1.1302     2.0757     0.0505 C.ar    
   7 N7             1.0962     3.4730     0.0857 N.am    
   8 C8             1.8200     4.4154    -0.7774 C.3     
   9 C9             1.5098     5.8321    -0.4156 C.2     
  10 N10            0.6506     5.9762     0.6032 N.am    
  11 S11            0.2185     4.4516     1.1129 S.o2    
  12 O12            1.9976     6.7774    -0.9980 O.2     
  13 O13           -1.1560     4.2778     0.7968 O.2     
  14 O14            0.7614     4.2750     2.4142 O.2     
  15 N15            1.2319    -2.0944    -0.0559 N.pl3   
  16 C16            0.4533    -2.9443     0.6826 C.2     
  17 C17            2.0397    -2.8608    -0.8343 C.2     
  18 N18            1.7872    -4.1175    -0.5952 N.2     
  19 C19            0.8148    -4.2070     0.3347 C.2     
  20 C20            0.2414    -5.4616     0.8809 C.ar    
  21 C21            0.7074    -6.6975     0.4324 C.ar    
  22 C22           -0.7603    -5.4095     1.8478 C.ar    
  23 C23           -1.2907    -6.5794     2.3529 C.ar    
  24 C24           -0.8292    -7.8036     1.9008 C.ar    
  25 C25            0.1700    -7.8620     0.9443 C.ar    
  26 Cl26          -1.5005    -9.2710     2.5410 Cl      
  27 Cl27           1.9600    -6.7715    -0.7673 Cl      
  28 C28            3.0607    -2.3430    -1.8144 C.3     
  29 C29            2.3921    -2.0644    -3.1359 C.ar    
  30 C30            1.9538    -0.7859    -3.4304 C.ar    
  31 C31            2.2243    -3.0868    -4.0523 C.ar    
  32 C32            1.6135    -2.8370    -5.2646 C.ar    
  33 C33            1.1652    -1.5522    -5.5643 C.ar    
  34 C34            1.3409    -0.5251    -4.6392 C.ar    
  35 C35            0.5078    -1.2776    -6.8660 C.ar    
  36 C36            0.0596     0.0072    -7.1657 C.ar    
  37 C37            0.3417    -2.3024    -7.7953 C.ar    
  38 C38           -0.2700    -2.0413    -9.0047 C.ar    
  39 C39           -0.7174    -0.7651    -9.2951 C.ar    
  40 C40           -0.5507     0.2570    -8.3781 C.ar    
  41 C41           -1.3836    -0.4859   -10.6176 C.3     
  42 C42           -2.6339    -1.3574   -10.7529 C.3     
  43 C43           -1.7808     0.9900   -10.6871 C.3     
  44 C44           -0.4127    -0.8069   -11.7557 C.3     
  45 C45            3.3241     4.1779    -0.6280 C.3     
  46 C46            1.4190     4.1708    -2.2335 C.3     
  47 H47           -0.9539     1.8816    -0.4135 H       
  48 H48           -0.8943    -0.5774    -0.4713 H       
  49 H49            3.2818    -0.4988     0.4404 H       
  50 H50            3.2225     1.9601     0.5033 H       
  51 H51            0.3359     6.8156     0.9738 H       
  52 H52           -0.3020    -2.6653     1.4024 H       
  53 H53           -1.1211    -4.4551     2.2018 H       
  54 H54           -2.0670    -6.5396     3.1026 H       
  55 H55            0.5266    -8.8196     0.5948 H       
  56 H56            3.5007    -1.4233    -1.4288 H       
  57 H57            3.8426    -3.0896    -1.9530 H       
  58 H58            2.0911     0.0096    -2.7130 H       
  59 H59            2.5721    -4.0823    -3.8190 H       
  60 H60            1.4835    -3.6359    -5.9796 H       
  61 H61            0.9950     0.4725    -4.8663 H       
  62 H62            0.1892     0.8059    -6.4505 H       
  63 H63            0.6913    -3.2991    -7.5699 H       
  64 H64           -0.3993    -2.8349    -9.7258 H       
  65 H65           -0.9022     1.2516    -8.6098 H       
  66 H66           -3.3256    -1.1287    -9.9421 H       
  67 H67           -3.1158    -1.1555   -11.7095 H       
  68 H68           -2.3510    -2.4089   -10.7033 H       
  69 H69           -0.8901     1.6109   -10.5908 H       
  70 H70           -2.2627     1.1919   -11.6437 H       
  71 H71           -2.4725     1.2187    -9.8764 H       
  72 H72           -0.1297    -1.8584   -11.7061 H       
  73 H73           -0.8946    -0.6050   -12.7123 H       
  74 H74            0.4780    -0.1861   -11.6593 H       
  75 H75            3.5614     3.1555    -0.9218 H       
  76 H76            3.8671     4.8748    -1.2665 H       
  77 H77            3.6152     4.3344     0.4107 H       
  78 H78            0.3351     4.2364    -2.3278 H       
  79 H79            1.8853     4.9228    -2.8700 H       
  80 H80            1.7510     3.1789    -2.5401 H       
@<TRIPOS>BOND
   1    1    2 ar
   2    1    6 ar
   3    1   47 1
   4    2    3 ar
   5    2   48 1
   6    3    4 ar
   7    3   15 1
   8    4    5 ar
   9    4   49 1
  10    5    6 ar
  11    5   50 1
  12    6    7 1
  13    7    8 1
  14    7   11 am
  15    8    9 1
  16    8   45 1
  17    8   46 1
  18    9   10 am
  19    9   12 2
  20   10   11 am
  21   10   51 1
  22   11   13 2
  23   11   14 2
  24   15   16 1
  25   15   17 1
  26   16   19 2
  27   16   52 1
  28   17   18 2
  29   17   28 1
  30   18   19 1
  31   19   20 1
  32   20   21 ar
  33   20   22 ar
  34   21   27 1
  35   21   25 ar
  36   22   23 ar
  37   22   53 1
  38   23   24 ar
  39   23   54 1
  40   24   25 ar
  41   24   26 1
  42   25   55 1
  43   28   29 1
  44   28   56 1
  45   28   57 1
  46   29   30 ar
  47   29   31 ar
  48   30   34 ar
  49   30   58 1
  50   31   32 ar
  51   31   59 1
  52   32   33 ar
  53   32   60 1
  54   33   34 ar
  55   33   35 1
  56   34   61 1
  57   35   36 ar
  58   35   37 ar
  59   36   40 ar
  60   36   62 1
  61   37   38 ar
  62   37   63 1
  63   38   39 ar
  64   38   64 1
  65   39   41 1
  66   39   40 ar
  67   40   65 1
  68   41   42 1
  69   41   44 1
  70   41   43 1
  71   42   66 1
  72   42   67 1
  73   42   68 1
  74   43   69 1
  75   43   70 1
  76   43   71 1
  77   44   72 1
  78   44   73 1
  79   44   74 1
  80   45   75 1
  81   45   76 1
  82   45   77 1
  83   46   78 1
  84   46   79 1
  85   46   80 1

#	End of record

