#	Name: ASD02198509
#	Creating user name:	WinNT
#	Creation time:	15. 06. 2019 20:19

#	Modifying user name:	WinNT
#	Modification time:	15. 06. 2019 20:19

#	Program:	/corina/corina34_cracker 3.40 0067  02.08.2006

@<TRIPOS>MOLECULE
ASD02198509
  39   42    0    0    0
SMALL
NO_CHARGES


@<TRIPOS>ATOM
   1 C1             0.0957     1.0064    -0.1359 C.2     
   2 C2             0.3583    -0.3217    -0.2193 C.2     
   3 N3             1.6318    -0.7782    -0.2192 N.pl3   
   4 N4             2.6551    -0.0101    -0.1419 N.2     
   5 C5             2.5425     1.2975    -0.0562 C.2     
   6 C6             1.1961     1.8934    -0.0491 C.2     
   7 C7             1.8422    -2.1558    -0.3072 C.ar    
   8 C8             3.3429    -4.0101    -0.5551 C.ar    
   9 C9             2.2596    -4.8901    -0.4824 C.ar    
  10 C10            0.9649    -4.3879    -0.3262 C.ar    
  11 C11            0.7610    -3.0286    -0.2402 C.ar    
  12 C12            3.7440     2.1520     0.0314 C.2     
  13 N13            4.8800     1.8853     0.7428 N.pl3   
  14 N14            5.7648     2.9536     0.5498 N.2     
  15 C15            5.1994     3.8311    -0.2404 C.2     
  16 C16            3.9330     3.3652    -0.5936 C.2     
  17 C17            5.1168     0.7477     1.5248 C.ar    
  18 C18            4.1170     0.2503     2.3503 C.ar    
  19 O19            1.0351     3.1021     0.0283 O.2     
  20 C20            6.3500     0.1114     1.4718 C.ar    
  21 C21            6.5803    -1.0105     2.2438 C.ar    
  22 C22            5.5842    -1.5005     3.0684 C.ar    
  23 C23            4.3536    -0.8720     3.1197 C.ar    
  24 C24            3.1318    -2.6520    -0.4675 C.ar    
  25 C25            2.4753    -6.3028    -0.5736 C.1     
  26 N26            2.6464    -7.4235    -0.6460 N.1     
  27 H27           -0.9192     1.3756    -0.1401 H       
  28 H28           -0.4597    -1.0237    -0.2864 H       
  29 H29            4.3448    -4.3949    -0.6759 H       
  30 H30            0.1255    -5.0651    -0.2697 H       
  31 H31           -0.2394    -2.6397    -0.1201 H       
  32 H32            5.6418     4.7604    -0.5675 H       
  33 H33            3.2252     3.8682    -1.2358 H       
  34 H34            3.1557     0.7407     2.3908 H       
  35 H35            7.1281     0.4932     0.8275 H       
  36 H36            7.5392    -1.5058     2.2030 H       
  37 H37            5.7665    -2.3784     3.6705 H       
  38 H38            3.5777    -1.2571     3.7647 H       
  39 H39            3.9685    -1.9714    -0.5236 H       
@<TRIPOS>BOND
   1    1    2 2
   2    1    6 1
   3    1   27 1
   4    2    3 1
   5    2   28 1
   6    3    4 1
   7    3    7 1
   8    4    5 2
   9    5    6 1
  10    5   12 1
  11    6   19 2
  12    7   24 ar
  13    7   11 ar
  14    8    9 ar
  15    8   24 ar
  16    8   29 1
  17    9   10 ar
  18    9   25 1
  19   10   11 ar
  20   10   30 1
  21   11   31 1
  22   12   13 1
  23   12   16 2
  24   13   14 1
  25   13   17 1
  26   14   15 2
  27   15   16 1
  28   15   32 1
  29   16   33 1
  30   17   20 ar
  31   17   18 ar
  32   18   23 ar
  33   18   34 1
  34   20   21 ar
  35   20   35 1
  36   21   22 ar
  37   21   36 1
  38   22   23 ar
  39   22   37 1
  40   23   38 1
  41   24   39 1
  42   25   26 3

#	End of record

