#	Name: ASD04882505
#	Creating user name:	WinNT
#	Creation time:	15. 06. 2019 20:54

#	Modifying user name:	WinNT
#	Modification time:	15. 06. 2019 20:54

#	Program:	/corina/corina34_cracker 3.40 0067  02.08.2006

@<TRIPOS>MOLECULE
ASD04882505
  77   82    0    0    0
SMALL
NO_CHARGES


@<TRIPOS>ATOM
   1 C1            -0.0215     1.4012    -0.0092 C.ar    
   2 C2            -0.0115     0.0036    -0.0052 C.ar    
   3 C3            -1.2094    -0.7019    -0.0160 C.ar    
   4 C4            -2.4097    -0.0268    -0.0310 C.ar    
   5 C5            -2.4267     1.3708    -0.0350 C.ar    
   6 C6            -1.2239     2.0825    -0.0185 C.ar    
   7 N7             1.1998    -0.6830     0.0090 N.3     
   8 C8             1.3075    -1.5362     1.2007 C.3     
   9 C9             1.3717    -1.4731    -1.2181 C.3     
  10 C10            2.7456    -2.1474    -1.1992 C.3     
  11 N11            2.8533    -3.0005    -0.0075 N.3     
  12 C12            2.6814    -2.2105     1.2196 C.3     
  13 C13           -3.7126     2.0937    -0.0516 C.2     
  14 O14           -3.7265     3.3096    -0.0551 O.2     
  15 N15           -4.8720     1.4065    -0.0628 N.am    
  16 N16            1.1866     2.1110     0.0021 N.am    
  17 C17            4.0684    -3.6893     0.0068 C.ar    
  18 C18            1.2296     3.3600     0.5068 C.2     
  19 C19            2.5162     4.0732     0.6000 C.2     
  20 O20            0.2069     3.8985     0.8853 O.2     
  21 N21            3.7329     3.5991     0.2178 N.2     
  22 C22            4.6244     4.5145     0.4539 C.2     
  23 O23            4.0245     5.5887     0.9859 O.3     
  24 C24            2.7098     5.3324     1.0790 C.2     
  25 C25            5.2668    -2.9867     0.0228 C.ar    
  26 C26            4.0811    -5.0782     0.0108 C.ar    
  27 C27            5.2844    -5.7562     0.0249 C.ar    
  28 C28            6.4754    -5.0538     0.0355 C.ar    
  29 C29            6.4662    -3.6708     0.0368 C.ar    
  30 C30            2.7836    -5.8445     0.0002 C.3     
  31 C31           -6.1489     2.1244    -0.0793 C.3     
  32 C32           -7.3003     1.1169    -0.0895 C.3     
  33 C33           -8.6339     1.8667    -0.1067 C.3     
  34 C34           -9.7680     0.8743    -0.1168 C.2     
  35 C35            6.0998     4.3882     0.1743 C.3     
  36 C36            6.7243     5.3956    -0.7932 C.3     
  37 C37            7.0165     5.4920     0.7055 C.3     
  38 N38          -10.3589     0.3711     0.9254 N.2     
  39 O39          -11.2328    -0.3970     0.5826 O.3     
  40 C40          -11.2840    -0.4587    -0.7515 C.2     
  41 N41          -10.3583     0.3513    -1.2062 N.2     
  42 C42          -12.2287    -1.2949    -1.5757 C.3     
  43 H43           -1.1986    -1.7819    -0.0129 H       
  44 H44           -3.3385    -0.5778    -0.0400 H       
  45 H45           -1.2340     3.1625    -0.0213 H       
  46 H46            1.1893    -0.9264     2.0964 H       
  47 H47            0.5287    -2.2984     1.1739 H       
  48 H48            0.5937    -2.2346    -1.2724 H       
  49 H49            1.3004    -0.8173    -2.0858 H       
  50 H50            2.8638    -2.7572    -2.0949 H       
  51 H51            3.5244    -1.3852    -1.1724 H       
  52 H52            3.4594    -1.4490     1.2739 H       
  53 H53            2.7527    -2.8662     2.0873 H       
  54 H54           -4.8609     0.4366    -0.0600 H       
  55 H55            1.9919     1.7035    -0.3534 H       
  56 H56            1.9513     5.9965     1.4664 H       
  57 H57            5.2604    -1.9067     0.0239 H       
  58 H58            5.2951    -6.8361     0.0280 H       
  59 H59            7.4149    -5.5864     0.0472 H       
  60 H60            7.3983    -3.1252     0.0451 H       
  61 H61            2.4808    -6.0321    -1.0299 H       
  62 H62            2.9182    -6.7941     0.5180 H       
  63 H63            2.0132    -5.2615     0.5049 H       
  64 H64           -6.2239     2.7528     0.8082 H       
  65 H65           -6.2037     2.7479    -0.9716 H       
  66 H66           -7.2254     0.4885    -0.9770 H       
  67 H67           -7.2455     0.4934     0.8029 H       
  68 H68           -8.7089     2.4951     0.7808 H       
  69 H69           -8.6887     2.4902    -0.9991 H       
  70 H70            6.4908     3.3708     0.1632 H       
  71 H71            7.5264     5.0410    -1.4406 H       
  72 H72            6.0679     6.1497    -1.2275 H       
  73 H73            6.5524     6.3095     1.2572 H       
  74 H74            8.0108     5.2009     1.0442 H       
  75 H75          -12.8854    -1.8598    -0.9142 H       
  76 H76          -12.8274    -0.6446    -2.2134 H       
  77 H77          -11.6565    -1.9850    -2.1957 H       
@<TRIPOS>BOND
   1    1    2 ar
   2    1   16 1
   3    1    6 ar
   4    2    3 ar
   5    2    7 1
   6    3    4 ar
   7    3   43 1
   8    4    5 ar
   9    4   44 1
  10    5    6 ar
  11    5   13 1
  12    6   45 1
  13    7    8 1
  14    7    9 1
  15    8   12 1
  16    8   46 1
  17    8   47 1
  18    9   10 1
  19    9   48 1
  20    9   49 1
  21   10   11 1
  22   10   50 1
  23   10   51 1
  24   11   12 1
  25   11   17 1
  26   12   52 1
  27   12   53 1
  28   13   14 2
  29   13   15 am
  30   15   31 1
  31   15   54 1
  32   16   18 am
  33   16   55 1
  34   17   26 ar
  35   17   25 ar
  36   18   19 1
  37   18   20 2
  38   19   21 1
  39   19   24 2
  40   21   22 2
  41   22   23 1
  42   22   35 1
  43   23   24 1
  44   24   56 1
  45   25   29 ar
  46   25   57 1
  47   26   27 ar
  48   26   30 1
  49   27   28 ar
  50   27   58 1
  51   28   29 ar
  52   28   59 1
  53   29   60 1
  54   30   61 1
  55   30   62 1
  56   30   63 1
  57   31   32 1
  58   31   64 1
  59   31   65 1
  60   32   33 1
  61   32   66 1
  62   32   67 1
  63   33   34 1
  64   33   68 1
  65   33   69 1
  66   34   38 2
  67   34   41 1
  68   35   36 1
  69   35   37 1
  70   35   70 1
  71   36   37 1
  72   36   71 1
  73   36   72 1
  74   37   73 1
  75   37   74 1
  76   38   39 1
  77   39   40 1
  78   40   41 2
  79   40   42 1
  80   42   75 1
  81   42   76 1
  82   42   77 1

#	End of record

