#	Name: ASD01420035
#	Creating user name:	WinNT
#	Creation time:	15. 06. 2019 19:20

#	Modifying user name:	WinNT
#	Modification time:	15. 06. 2019 19:20

#	Program:	/corina/corina34_cracker 3.40 0067  02.08.2006

@<TRIPOS>MOLECULE
ASD01420035
  54   56    0    0    0
SMALL
NO_CHARGES


@<TRIPOS>ATOM
   1 C1            -0.1610     1.4436     0.2586 C.3     
   2 N2            -0.0083    -0.0100     0.0220 N.3     
   3 C3             1.2453    -0.1127    -0.7589 C.3     
   4 C4             2.0755     1.0852    -0.3578 C.ar    
   5 C5             3.4273     1.3611    -0.4974 C.ar    
   6 C6             3.9399     2.5628    -0.0311 C.ar    
   7 C7             3.1027     3.4821     0.5714 C.ar    
   8 C8             1.7553     3.2054     0.7096 C.ar    
   9 C9             1.2412     2.0089     0.2461 C.ar    
  10 O10            4.2490     0.4551    -1.0898 O.3     
  11 C11            5.6298     0.8061    -1.1996 C.3     
  12 C12            6.3912    -0.3285    -1.8881 C.3     
  13 N13            5.9150    -0.4696    -3.2706 N.3     
  14 C14            6.2568     0.7154    -4.0686 C.3     
  15 C15            6.4466    -1.6917    -3.8884 C.3     
  16 C16           -1.1472    -0.5421    -0.7381 C.3     
  17 C17           -0.9105    -1.9986    -1.0439 C.ar    
  18 C18           -1.0343    -2.9473    -0.0384 C.ar    
  19 C19           -0.8164    -4.2868    -0.3203 C.ar    
  20 C20           -0.4752    -4.6756    -1.6068 C.ar    
  21 C21           -0.3527    -3.7234    -2.6085 C.ar    
  22 C22           -0.5759    -2.3891    -2.3262 C.ar    
  23 O23           -0.2606    -5.9881    -1.8862 O.3     
  24 C24            0.0876    -6.3163    -3.2327 C.3     
  25 O25           -1.3684    -2.5631     1.2216 O.3     
  26 C26           -1.4782    -3.5930     2.2062 C.3     
  27 H27           -0.7557     1.8940    -0.5361 H       
  28 H28           -0.6295     1.6203     1.2268 H       
  29 H29            1.7699    -1.0350    -0.5093 H       
  30 H30            1.0277    -0.0797    -1.8265 H       
  31 H31            4.9925     2.7794    -0.1385 H       
  32 H32            3.5014     4.4177     0.9349 H       
  33 H33            1.1030     3.9254     1.1813 H       
  34 H34            5.7271     1.7184    -1.7881 H       
  35 H35            6.0434     0.9697    -0.2045 H       
  36 H36            7.4571    -0.1005    -1.8925 H       
  37 H37            6.2212    -1.2601    -1.3484 H       
  38 H38            7.3391     0.8438    -4.0832 H       
  39 H39            5.8927     0.5846    -5.0877 H       
  40 H40            5.7923     1.5971    -3.6272 H       
  41 H41            6.1201    -2.5599    -3.3160 H       
  42 H42            6.0785    -1.7715    -4.9112 H       
  43 H43            7.5358    -1.6505    -3.8965 H       
  44 H44           -2.0580    -0.4380    -0.1484 H       
  45 H45           -1.2526     0.0125    -1.6705 H       
  46 H46           -0.9119    -5.0265     0.4608 H       
  47 H47           -0.0869    -4.0257    -3.6107 H       
  48 H48           -0.4844    -1.6499    -3.1082 H       
  49 H49           -0.7131    -6.0015    -3.9020 H       
  50 H50            1.0106    -5.8042    -3.5044 H       
  51 H51            0.2307    -7.3934    -3.3188 H       
  52 H52           -2.2464    -4.3046     1.9036 H       
  53 H53           -0.5224    -4.1085     2.3009 H       
  54 H54           -1.7494    -3.1514     3.1651 H       
@<TRIPOS>BOND
   1    1    2 1
   2    1    9 1
   3    1   27 1
   4    1   28 1
   5    2    3 1
   6    2   16 1
   7    3    4 1
   8    3   29 1
   9    3   30 1
  10    4    5 ar
  11    4    9 ar
  12    5    6 ar
  13    5   10 1
  14    6    7 ar
  15    6   31 1
  16    7    8 ar
  17    7   32 1
  18    8    9 ar
  19    8   33 1
  20   10   11 1
  21   11   12 1
  22   11   34 1
  23   11   35 1
  24   12   13 1
  25   12   36 1
  26   12   37 1
  27   13   14 1
  28   13   15 1
  29   14   38 1
  30   14   39 1
  31   14   40 1
  32   15   41 1
  33   15   42 1
  34   15   43 1
  35   16   17 1
  36   16   44 1
  37   16   45 1
  38   17   18 ar
  39   17   22 ar
  40   18   19 ar
  41   18   25 1
  42   19   20 ar
  43   19   46 1
  44   20   21 ar
  45   20   23 1
  46   21   22 ar
  47   21   47 1
  48   22   48 1
  49   23   24 1
  50   24   49 1
  51   24   50 1
  52   24   51 1
  53   25   26 1
  54   26   52 1
  55   26   53 1
  56   26   54 1

#	End of record

