#	Name: ASD01028780
#	Creating user name:	WinNT
#	Creation time:	15. 06. 2019 18:58

#	Modifying user name:	WinNT
#	Modification time:	15. 06. 2019 18:58

#	Program:	/corina/corina34_cracker 3.40 0067  02.08.2006

@<TRIPOS>MOLECULE
ASD01028780
  18   19    0    0    0
SMALL
NO_CHARGES


@<TRIPOS>ATOM
   1 N1            -0.0157     1.3052     0.0092 N.ar    
   2 C2             0.0021    -0.0041     0.0020 C.ar    
   3 C3             1.2070    -0.7198    -0.0133 C.ar    
   4 C4             2.4081    -0.0372    -0.0211 C.ar    
   5 C5             2.3713     1.3695    -0.0132 C.ar    
   6 N6             3.4974     2.0884    -0.0204 N.ar    
   7 C7             3.4692     3.4000    -0.0135 C.ar    
   8 C8             2.2688     4.1041     0.0020 C.ar    
   9 C9             1.0797     3.4288     0.0101 C.ar    
  10 C10            1.1126     2.0195     0.0023 C.ar    
  11 N11            1.1936    -2.1148    -0.0203 N.pl3   
  12 Cl12          -0.4306     4.2845     0.0295 Cl      
  13 H13           -0.9329    -0.5447     0.0084 H       
  14 H14            3.3485    -0.5681    -0.0326 H       
  15 H15            4.4005     3.9469    -0.0198 H       
  16 H16            2.2764     5.1841     0.0080 H       
  17 H17            0.3490    -2.5917    -0.0145 H       
  18 H18            2.0289    -2.6078    -0.0309 H       
@<TRIPOS>BOND
   1    1    2 ar
   2    1   10 ar
   3    2    3 ar
   4    2   13 1
   5    3    4 ar
   6    3   11 1
   7    4    5 ar
   8    4   14 1
   9    5    6 ar
  10    5   10 ar
  11    6    7 ar
  12    7    8 ar
  13    7   15 1
  14    8    9 ar
  15    8   16 1
  16    9   10 ar
  17    9   12 1
  18   11   17 1
  19   11   18 1

#	End of record

