#	Name: ASD02690058
#	Creating user name:	WinNT
#	Creation time:	15. 06. 2019 20:26

#	Modifying user name:	WinNT
#	Modification time:	15. 06. 2019 20:26

#	Program:	/corina/corina34_cracker 3.40 0067  02.08.2006

@<TRIPOS>MOLECULE
ASD02690058
  30   31    0    0    0
SMALL
NO_CHARGES


@<TRIPOS>ATOM
   1 C1            -0.0144     1.2102     0.0087 C.2     
   2 O2             0.0021    -0.0041     0.0020 O.2     
   3 N3             4.0241     2.2123    -0.8694 N.3     
   4 C4             3.7186     1.8815     0.5283 C.3     
   5 C5             2.3950     1.1163     0.5951 C.3     
   6 C6             1.2803     1.9814     0.0005 C.3     
   7 C7             1.6459     2.3522    -1.4395 C.3     
   8 C8             2.9912     3.0816    -1.4473 C.3     
   9 N9            -2.5028     1.3291     0.0211 N.pl3   
  10 C10           -1.2480     1.9002     0.0183 C.2     
  11 C11           -1.4187     3.2740     0.0271 C.2     
  12 C12           -2.7940     3.5128     0.0352 C.2     
  13 C13           -3.4257     2.3126     0.0313 C.2     
  14 C14           -2.7867    -0.1081     0.0087 C.3     
  15 H15            4.9376     2.6333    -0.9500 H       
  16 H16            4.5170     1.2627     0.9379 H       
  17 H17            3.6368     2.8000     1.1094 H       
  18 H18            2.4805     0.1908     0.0256 H       
  19 H19            2.1607     0.8845     1.6341 H       
  20 H20            1.1676     2.8887     0.5939 H       
  21 H21            1.7196     1.4462    -2.0410 H       
  22 H22            0.8764     3.0034    -1.8541 H       
  23 H23            2.9129     3.9945    -0.8570 H       
  24 H24            3.2613     3.3344    -2.4726 H       
  25 H25           -0.6367     4.0190     0.0278 H       
  26 H26           -3.2707     4.4819     0.0434 H       
  27 H27           -4.4959     2.1677     0.0352 H       
  28 H28           -2.8502    -0.4748     1.0332 H       
  29 H29           -3.7337    -0.2870    -0.5005 H       
  30 H30           -1.9876    -0.6318    -0.5158 H       
@<TRIPOS>BOND
   1    1    2 2
   2    1    6 1
   3    1   10 1
   4    3    4 1
   5    3    8 1
   6    3   15 1
   7    4    5 1
   8    4   16 1
   9    4   17 1
  10    5    6 1
  11    5   18 1
  12    5   19 1
  13    6    7 1
  14    6   20 1
  15    7    8 1
  16    7   21 1
  17    7   22 1
  18    8   23 1
  19    8   24 1
  20    9   10 1
  21    9   13 1
  22    9   14 1
  23   10   11 2
  24   11   12 1
  25   11   25 1
  26   12   13 2
  27   12   26 1
  28   13   27 1
  29   14   28 1
  30   14   29 1
  31   14   30 1

#	End of record

