#	Name: ASD01180100
#	Creating user name:	WinNT
#	Creation time:	15. 06. 2019 19:06

#	Modifying user name:	WinNT
#	Modification time:	15. 06. 2019 19:06

#	Program:	/corina/corina34_cracker 3.40 0067  02.08.2006

@<TRIPOS>MOLECULE
ASD01180100
  60   62    0    0    0
SMALL
NO_CHARGES


@<TRIPOS>ATOM
   1 C1             0.9230     1.5341    -0.6427 C.2     
   2 C2             0.8158     0.0335    -0.5551 C.3     
   3 C3             2.2145    -0.5827    -0.6262 C.3     
   4 O4             2.0068     2.0571    -0.7509 O.2     
   5 O5            -0.1860     2.2894    -0.6060 O.3     
   6 C6             3.2234    -2.8003    -0.5835 C.2     
   7 C7             3.1182    -4.2725    -0.4975 C.ar    
   8 C8             4.2690    -5.0611    -0.5412 C.ar    
   9 C9             4.1640    -6.4343    -0.4600 C.ar    
  10 C10            2.9213    -7.0299    -0.3361 C.ar    
  11 C11            1.7767    -6.2540    -0.2922 C.ar    
  12 C12            1.8682    -4.8794    -0.3666 C.ar    
  13 O13            4.3137    -2.2741    -0.6924 O.2     
  14 N14            2.1103    -2.0415    -0.5411 N.am    
  15 C15            2.8141    -8.5306    -0.2489 C.3     
  16 C16            2.6340    -8.9450     1.2128 C.3     
  17 C17            3.9007    -8.6028     1.9997 C.3     
  18 C18            3.6724    -8.8920     3.4847 C.3     
  19 N19            1.6611    -8.9840    -1.0307 N.pl3   
  20 N20            0.6707   -10.6018    -2.3884 N.ar    
  21 C21            1.6581   -10.2532    -1.5895 C.ar    
  22 C22            2.7069   -11.1354    -1.2911 C.ar    
  23 C23            2.7175   -12.3850    -1.8330 C.ar    
  24 C24            1.6574   -12.7519    -2.6875 C.ar    
  25 C25            1.6056   -14.0233    -3.2786 C.ar    
  26 C26            0.5655   -14.3435    -4.0982 C.ar    
  27 C27           -0.4479   -13.4245    -4.3578 C.ar    
  28 C28           -0.4286   -12.1821    -3.8007 C.ar    
  29 C29            0.6276   -11.8157    -2.9497 C.ar    
  30 C30           -1.5836   -13.8107    -5.2700 C.3     
  31 F31           -1.3943   -15.1214    -5.7212 F       
  32 F32           -2.7923   -13.7284    -4.5704 F       
  33 F33           -1.6185   -12.9410    -6.3652 F       
  34 C34            5.0647    -9.4534     1.4876 C.3     
  35 H35            0.3447    -0.2427     0.3883 H       
  36 H36            0.2131    -0.3368    -1.3843 H       
  37 H37            2.6856    -0.3066    -1.5696 H       
  38 H38            2.8172    -0.2125     0.2030 H       
  39 H39           -0.0670     3.2472    -0.6654 H       
  40 H40            5.2395    -4.5974    -0.6386 H       
  41 H41            5.0536    -7.0456    -0.4936 H       
  42 H42            0.8097    -6.7251    -0.1954 H       
  43 H43            0.9743    -4.2746    -0.3278 H       
  44 H44            1.2402    -2.4614    -0.4542 H       
  45 H45            3.7228    -8.9834    -0.6456 H       
  46 H46            1.7854    -8.4107     1.6400 H       
  47 H47            2.4519   -10.0184     1.2664 H       
  48 H48            4.1366    -7.5469     1.8673 H       
  49 H49            3.4366    -9.9479     3.6171 H       
  50 H50            4.5748    -8.6482     4.0453 H       
  51 H51            2.8431    -8.2860     3.8496 H       
  52 H52            0.8998    -8.3965    -1.1574 H       
  53 H53            3.5047   -10.8243    -0.6330 H       
  54 H54            3.5174   -13.0768    -1.6141 H       
  55 H55            2.3863   -14.7441    -3.0852 H       
  56 H56            0.5266   -15.3224    -4.5526 H       
  57 H57           -1.2222   -11.4808    -4.0124 H       
  58 H58            5.9429    -9.2797     2.1094 H       
  59 H59            4.7912   -10.5077     1.5315 H       
  60 H60            5.2894    -9.1790     0.4569 H       
@<TRIPOS>BOND
   1    1    2 1
   2    1    4 2
   3    1    5 1
   4    2    3 1
   5    2   35 1
   6    2   36 1
   7    3   14 1
   8    3   37 1
   9    3   38 1
  10    5   39 1
  11    6    7 1
  12    6   13 2
  13    6   14 am
  14    7    8 ar
  15    7   12 ar
  16    8    9 ar
  17    8   40 1
  18    9   10 ar
  19    9   41 1
  20   10   11 ar
  21   10   15 1
  22   11   12 ar
  23   11   42 1
  24   12   43 1
  25   14   44 1
  26   15   16 1
  27   15   19 1
  28   15   45 1
  29   16   17 1
  30   16   46 1
  31   16   47 1
  32   17   18 1
  33   17   34 1
  34   17   48 1
  35   18   49 1
  36   18   50 1
  37   18   51 1
  38   19   21 1
  39   19   52 1
  40   20   21 ar
  41   20   29 ar
  42   21   22 ar
  43   22   23 ar
  44   22   53 1
  45   23   24 ar
  46   23   54 1
  47   24   25 ar
  48   24   29 ar
  49   25   26 ar
  50   25   55 1
  51   26   27 ar
  52   26   56 1
  53   27   28 ar
  54   27   30 1
  55   28   29 ar
  56   28   57 1
  57   30   31 1
  58   30   32 1
  59   30   33 1
  60   34   58 1
  61   34   59 1
  62   34   60 1

#	End of record

