#	Name: ASD08170304
#	Creating user name:	WinNT
#	Creation time:	15. 06. 2019 21:17

#	Modifying user name:	WinNT
#	Modification time:	15. 06. 2019 21:17

#	Program:	/corina/corina34_cracker 3.40 0067  02.08.2006

@<TRIPOS>MOLECULE
ASD08170304
  55   58    0    0    0
SMALL
NO_CHARGES


@<TRIPOS>ATOM
   1 N1            -0.0156     1.2977     0.0092 N.2     
   2 C2             0.0021    -0.0041     0.0020 C.2     
   3 S3             1.6908    -0.5171    -0.0169 S.3     
   4 C4             2.1706     1.1813    -0.0123 C.2     
   5 N5             1.0934     1.8979     0.0018 N.2     
   6 C6             7.9348     3.2710     4.7968 C.2     
   7 S7             7.6686     4.6846     5.8192 S.3     
   8 C8             8.3479     3.7865     7.1783 C.2     
   9 N9             8.6778     2.6038     6.7452 N.2     
  10 N10            8.4599     2.3437     5.5307 N.2     
  11 C11            9.2040     3.9596    10.7991 C.ar    
  12 C12            9.7678     3.1354    11.7870 C.ar    
  13 C13           -3.5263    -1.1969     0.0301 C.ar    
  14 C14           -4.8207    -0.6516     0.0453 C.ar    
  15 C15            8.8054     5.2577    11.1290 C.ar    
  16 C16            8.9619     5.7180    12.4178 C.ar    
  17 C17            9.5133     4.9004    13.3921 C.ar    
  18 C18            9.9225     3.6205    13.0806 C.ar    
  19 C19           -5.9232    -1.4984     0.0512 C.ar    
  20 C20           -5.7441    -2.8660     0.0426 C.ar    
  21 C21           -4.4678    -3.4071     0.0280 C.ar    
  22 C22           -3.3627    -2.5847     0.0157 C.ar    
  23 S23           10.2754     1.4957    11.3891 S.3     
  24 S24           -5.0458     1.0959     0.0575 S.3     
  25 N25           -1.1087    -0.8393     0.0085 N.am    
  26 C26           -2.3487    -0.3114     0.0232 C.2     
  27 O27           -2.4956     0.8958     0.0307 O.2     
  28 N28            8.5031     4.2570     8.4767 N.am    
  29 C29            9.0394     3.4606     9.4225 C.2     
  30 O30            9.3877     2.3302     9.1397 O.2     
  31 C31            3.5840     1.7040    -0.0226 C.3     
  32 C32            4.0756     1.8733     1.4164 C.3     
  33 S33            5.7770     2.5025     1.4041 S.3     
  34 C34            6.1759     2.6347     3.1687 C.3     
  35 C35            7.6033     3.1611     3.3308 C.3     
  36 H36            8.3754     5.8994    10.3742 H       
  37 H37            8.6535     6.7217    12.6707 H       
  38 H38            9.6316     5.2711    14.3996 H       
  39 H39           10.3512     2.9899    13.8455 H       
  40 H40           -6.9209    -1.0851     0.0629 H       
  41 H41           -6.6038    -3.5197     0.0476 H       
  42 H42           -4.3392    -4.4794     0.0218 H       
  43 H43           -2.3710    -3.0120     0.0040 H       
  44 H44           11.5558     1.6588    11.0107 H       
  45 H45           -5.0967     1.4035    -1.2509 H       
  46 H46           -0.9915    -1.8022     0.0026 H       
  47 H47            8.2253     5.1586     8.7022 H       
  48 H48            4.2287     0.9980    -0.5461 H       
  49 H49            3.6114     2.6675    -0.5316 H       
  50 H50            3.4309     2.5793     1.9399 H       
  51 H51            4.0482     0.9099     1.9254 H       
  52 H52            5.4787     3.3217     3.6484 H       
  53 H53            6.0960     1.6522     3.6339 H       
  54 H54            7.6833     4.1436     2.8656 H       
  55 H55            8.3006     2.4742     2.8511 H       
@<TRIPOS>BOND
   1    1    2 2
   2    1    5 1
   3    2    3 1
   4    2   25 1
   5    3    4 1
   6    4    5 2
   7    4   31 1
   8    6    7 1
   9    6   35 1
  10    6   10 2
  11    7    8 1
  12    8    9 2
  13    8   28 1
  14    9   10 1
  15   11   15 ar
  16   11   29 1
  17   11   12 ar
  18   12   23 1
  19   12   18 ar
  20   13   14 ar
  21   13   26 1
  22   13   22 ar
  23   14   19 ar
  24   14   24 1
  25   15   16 ar
  26   15   36 1
  27   16   17 ar
  28   16   37 1
  29   17   18 ar
  30   17   38 1
  31   18   39 1
  32   19   20 ar
  33   19   40 1
  34   20   21 ar
  35   20   41 1
  36   21   22 ar
  37   21   42 1
  38   22   43 1
  39   23   44 1
  40   24   45 1
  41   25   26 am
  42   25   46 1
  43   26   27 2
  44   28   29 am
  45   28   47 1
  46   29   30 2
  47   31   32 1
  48   31   48 1
  49   31   49 1
  50   32   33 1
  51   32   50 1
  52   32   51 1
  53   33   34 1
  54   34   35 1
  55   34   52 1
  56   34   53 1
  57   35   54 1
  58   35   55 1

#	End of record

