#	Name: ASD01890358
#	Creating user name:	WinNT
#	Creation time:	15. 06. 2019 19:50

#	Modifying user name:	WinNT
#	Modification time:	15. 06. 2019 19:50

#	Program:	/corina/corina34_cracker 3.40 0067  02.08.2006

@<TRIPOS>MOLECULE
ASD01890358
  34   36    0    0    0
SMALL
NO_CHARGES


@<TRIPOS>ATOM
   1 C1            -0.0184     1.5028     0.0103 C.2     
   2 C2             0.0021    -0.0041     0.0020 C.3     
   3 C3             1.4513    -0.4944    -0.0145 C.3     
   4 O4             1.0197     2.1211     0.0037 O.2     
   5 O5            -1.1898     2.1580     0.0194 O.3     
   6 C6             2.1318    -0.0935     1.2690 C.ar    
   7 C7             3.2468     0.7231     1.2340 C.ar    
   8 C8             3.8714     1.0911     2.4108 C.ar    
   9 C9             3.3806     0.6421     3.6239 C.ar    
  10 C10            2.2647    -0.1751     3.6582 C.ar    
  11 C11            1.6376    -0.5379     2.4811 C.ar    
  12 Cl12           4.1649     1.1034     5.1023 Cl      
  13 C13            1.4723    -1.9954    -0.1466 C.2     
  14 N14            2.3676    -2.6733    -0.8037 N.2     
  15 C15            2.0890    -3.9996    -0.7190 C.ar    
  16 C16            0.9244    -4.1248     0.0573 C.ar    
  17 N17            0.5613    -2.8393     0.4087 N.pl3   
  18 C18            2.7054    -5.1471    -1.2245 C.ar    
  19 C19            2.1669    -6.3863    -0.9576 C.ar    
  20 C20            1.0159    -6.5041    -0.1899 C.ar    
  21 C21            0.3961    -5.3815     0.3164 C.ar    
  22 Cl22           2.9327    -7.8119    -1.5862 Cl      
  23 H23           -0.4983    -0.3791     0.8948 H       
  24 H24           -0.5153    -0.3696    -0.8850 H       
  25 H25            1.9763    -0.0479    -0.8589 H       
  26 H26           -1.1523     3.1243     0.0245 H       
  27 H27            3.6300     1.0732     0.2869 H       
  28 H28            4.7426     1.7287     2.3833 H       
  29 H29            1.8811    -0.5259     4.6049 H       
  30 H30            0.7639    -1.1722     2.5081 H       
  31 H31           -0.2027    -2.5852     0.9497 H       
  32 H32            3.6007    -5.0626    -1.8226 H       
  33 H33            0.6034    -7.4816     0.0119 H       
  34 H34           -0.4988    -5.4800     0.9130 H       
@<TRIPOS>BOND
   1    1    2 1
   2    1    4 2
   3    1    5 1
   4    2    3 1
   5    2   23 1
   6    2   24 1
   7    3    6 1
   8    3   13 1
   9    3   25 1
  10    5   26 1
  11    6    7 ar
  12    6   11 ar
  13    7    8 ar
  14    7   27 1
  15    8    9 ar
  16    8   28 1
  17    9   10 ar
  18    9   12 1
  19   10   11 ar
  20   10   29 1
  21   11   30 1
  22   13   14 2
  23   13   17 1
  24   14   15 1
  25   15   16 ar
  26   15   18 ar
  27   16   17 1
  28   16   21 ar
  29   17   31 1
  30   18   19 ar
  31   18   32 1
  32   19   20 ar
  33   19   22 1
  34   20   21 ar
  35   20   33 1
  36   21   34 1

#	End of record

