#	Name: ASD09890038
#	Creating user name:	WinNT
#	Creation time:	15. 06. 2019 21:24

#	Modifying user name:	WinNT
#	Modification time:	15. 06. 2019 21:24

#	Program:	/corina/corina34_cracker 3.40 0067  02.08.2006

@<TRIPOS>MOLECULE
ASD09890038
  46   49    0    0    0
SMALL
NO_CHARGES


@<TRIPOS>ATOM
   1 C1            -0.0167     1.3784     0.0096 C.ar    
   2 C2             0.0021    -0.0041     0.0020 C.ar    
   3 C3             1.2074    -0.6814    -0.0127 C.ar    
   4 C4             2.3963     0.0221    -0.0203 C.ar    
   5 C5             2.3802     1.4093    -0.0132 C.ar    
   6 C6             1.1695     2.0865     0.0021 C.ar    
   7 O7             3.5484     2.1036    -0.0202 O.3     
   8 C8             3.4557     3.5296    -0.0122 C.3     
   9 C9             4.8408     4.1231    -0.0217 C.2     
  10 N10            5.5772     4.4485    -1.1299 N.pl3   
  11 C11            6.7575     4.9505    -0.6542 C.2     
  12 N12            6.6910     4.9106     0.6565 N.2     
  13 N13            5.5580     4.4273     1.0229 N.2     
  14 S14            8.1105     5.5385    -1.6176 S.3     
  15 C15            9.2522     6.0169    -0.2970 C.3     
  16 C16           10.5971     6.4613    -0.8983 C.3     
  17 C17           10.8063     7.9293    -0.4730 C.3     
  18 C18            9.9420     8.0819     0.8032 C.3     
  19 C19            8.6911     7.2304     0.4727 C.3     
  20 C20            5.2001     4.2977    -2.4723 C.ar    
  21 C21            5.0297     5.4161    -3.2764 C.ar    
  22 C22            4.6581     5.2650    -4.5985 C.ar    
  23 C23            4.4555     4.0014    -5.1210 C.ar    
  24 C24            4.6246     2.8842    -4.3221 C.ar    
  25 C25            5.0021     3.0293    -3.0006 C.ar    
  26 Br26           4.3457     1.1575    -5.0409 Br      
  27 H27           -0.9595     1.9052     0.0170 H       
  28 H28           -0.9263    -0.5558     0.0080 H       
  29 H29            1.2194    -1.7613    -0.0179 H       
  30 H30            3.3375    -0.5074    -0.0315 H       
  31 H31            1.1543     3.1664     0.0073 H       
  32 H32            2.9113     3.8632    -0.8956 H       
  33 H33            2.9274     3.8543     0.8842 H       
  34 H34            9.4061     5.1802     0.3844 H       
  35 H35           11.4038     5.8408    -0.5080 H       
  36 H36           10.5622     6.3888    -1.9853 H       
  37 H37           11.8564     8.1150    -0.2470 H       
  38 H38           10.4576     8.6059    -1.2531 H       
  39 H39           10.4630     7.6816     1.6729 H       
  40 H40            9.6682     9.1250     0.9619 H       
  41 H41            8.0007     7.7941    -0.1548 H       
  42 H42            8.1975     6.9060     1.3888 H       
  43 H43            5.1871     6.4037    -2.8688 H       
  44 H44            4.5255     6.1352    -5.2243 H       
  45 H45            4.1644     3.8858    -6.1546 H       
  46 H46            5.1343     2.1573    -2.3773 H       
@<TRIPOS>BOND
   1    1    2 ar
   2    1    6 ar
   3    1   27 1
   4    2    3 ar
   5    2   28 1
   6    3    4 ar
   7    3   29 1
   8    4    5 ar
   9    4   30 1
  10    5    6 ar
  11    5    7 1
  12    6   31 1
  13    7    8 1
  14    8    9 1
  15    8   32 1
  16    8   33 1
  17    9   10 1
  18    9   13 2
  19   10   11 1
  20   10   20 1
  21   11   12 2
  22   11   14 1
  23   12   13 1
  24   14   15 1
  25   15   16 1
  26   15   19 1
  27   15   34 1
  28   16   17 1
  29   16   35 1
  30   16   36 1
  31   17   18 1
  32   17   37 1
  33   17   38 1
  34   18   19 1
  35   18   39 1
  36   18   40 1
  37   19   41 1
  38   19   42 1
  39   20   21 ar
  40   20   25 ar
  41   21   22 ar
  42   21   43 1
  43   22   23 ar
  44   22   44 1
  45   23   24 ar
  46   23   45 1
  47   24   25 ar
  48   24   26 1
  49   25   46 1

#	End of record

