#	Name: ASD01120148
#	Creating user name:	WinNT
#	Creation time:	15. 06. 2019 18:59

#	Modifying user name:	WinNT
#	Modification time:	15. 06. 2019 18:59

#	Program:	/corina/corina34_cracker 3.40 0067  02.08.2006

@<TRIPOS>MOLECULE
ASD01120148
  43   45    0    0    0
SMALL
NO_CHARGES


@<TRIPOS>ATOM
   1 C1            -0.0584     1.4175     0.6798 C.ar    
   2 C2            -0.0451     0.0187     0.7695 C.ar    
   3 C3            -1.2119    -0.7046     0.6562 C.ar    
   4 C4            -2.4228    -0.0327     0.4499 C.ar    
   5 C5            -2.4283     1.3815     0.3608 C.ar    
   6 C6            -1.2293     2.0934     0.4844 C.ar    
   7 N7            -3.5868    -0.6907     0.3325 N.ar    
   8 C8            -4.7056    -0.0337     0.1392 C.ar    
   9 N9            -4.7592     1.2857     0.0496 N.ar    
  10 C10           -3.6674     2.0325     0.1516 C.ar    
  11 C11           -6.0860     3.4970     0.6117 C.ar    
  12 C12           -4.9821     4.0392    -0.0337 C.ar    
  13 C13           -5.1166     5.2102    -0.7687 C.ar    
  14 C14           -6.3475     5.8318    -0.8554 C.ar    
  15 C15           -7.4452     5.2888    -0.2105 C.ar    
  16 C16           -7.3137     4.1237     0.5219 C.ar    
  17 O17            1.1065     2.1097     0.7943 O.3     
  18 C18            1.0280     3.5330     0.6943 C.3     
  19 N19           -3.7382     3.4079     0.0565 N.pl3   
  20 Br20          -6.5325     7.4260    -1.8555 Br      
  21 C21            2.4272     4.1329     0.8462 C.3     
  22 O22            3.2438     3.7213    -0.2518 O.3     
  23 C23            4.5785     4.2298    -0.2062 C.3     
  24 O24            1.1312    -0.6307     0.9697 O.3     
  25 C25            1.0794    -2.0564     1.0522 C.3     
  26 H26           -1.1927    -1.7822     0.7258 H       
  27 H27           -1.2288     3.1713     0.4172 H       
  28 H28           -5.6241    -0.5945     0.0488 H       
  29 H29           -5.9854     2.5843     1.1802 H       
  30 H30           -4.2600     5.6345    -1.2714 H       
  31 H31           -8.4063     5.7765    -0.2793 H       
  32 H32           -8.1721     3.7027     1.0243 H       
  33 H33            0.6189     3.8068    -0.2783 H       
  34 H34            0.3803     3.9174     1.4822 H       
  35 H35           -2.9247     3.9363     0.0524 H       
  36 H36            2.3568     5.2206     0.8590 H       
  37 H37            2.8716     3.7867     1.7794 H       
  38 H38            5.0675     3.8855     0.7051 H       
  39 H39            5.1334     3.8722    -1.0736 H       
  40 H40            4.5527     5.3194    -0.2153 H       
  41 H41            2.0839    -2.4478     1.2129 H       
  42 H42            0.4380    -2.3491     1.8835 H       
  43 H43            0.6767    -2.4597     0.1231 H       
@<TRIPOS>BOND
   1    1    2 ar
   2    1   17 1
   3    1    6 ar
   4    2    3 ar
   5    2   24 1
   6    3    4 ar
   7    3   26 1
   8    4    5 ar
   9    4    7 ar
  10    5    6 ar
  11    5   10 ar
  12    6   27 1
  13    7    8 ar
  14    8    9 ar
  15    8   28 1
  16    9   10 ar
  17   10   19 1
  18   11   12 ar
  19   11   16 ar
  20   11   29 1
  21   12   13 ar
  22   12   19 1
  23   13   14 ar
  24   13   30 1
  25   14   15 ar
  26   14   20 1
  27   15   16 ar
  28   15   31 1
  29   16   32 1
  30   17   18 1
  31   18   21 1
  32   18   33 1
  33   18   34 1
  34   19   35 1
  35   21   22 1
  36   21   36 1
  37   21   37 1
  38   22   23 1
  39   23   38 1
  40   23   39 1
  41   23   40 1
  42   24   25 1
  43   25   41 1
  44   25   42 1
  45   25   43 1

#	End of record

