#	Name: ASD03092887
#	Creating user name:	WinNT
#	Creation time:	15. 06. 2019 20:33

#	Modifying user name:	WinNT
#	Modification time:	15. 06. 2019 20:33

#	Program:	/corina/corina34_cracker 3.40 0067  02.08.2006

@<TRIPOS>MOLECULE
ASD03092887
  49   52    0    0    0
SMALL
NO_CHARGES


@<TRIPOS>ATOM
   1 C1            -0.0187     1.5258     0.0104 C.3     
   2 C2             0.0021    -0.0041     0.0020 C.3     
   3 H3             0.5293    -0.3651     0.8851 H       
   4 N4            -1.3723    -0.5112     0.0124 N.am    
   5 C5            -2.0286    -0.6552     1.1807 C.2     
   6 O6            -1.4801    -0.3643     2.2261 O.2     
   7 C7            -3.4125    -1.1658     1.1912 C.2     
   8 C8            -4.2085    -1.3617     2.2867 C.2     
   9 C9            -5.4151    -1.8564     1.7437 C.2     
  10 N10           -5.2478    -1.9103     0.4544 N.2     
  11 O11           -4.1497    -1.5277     0.1242 O.3     
  12 C12           -6.6539    -2.2462     2.5083 C.3     
  13 C13           -6.2540    -2.8539     3.8564 C.3     
  14 C14           -7.5183    -3.1739     4.6581 C.3     
  15 O15           -8.2887    -1.9821     4.8262 O.3     
  16 C16           -8.7308    -1.3955     3.6004 C.3     
  17 C17           -7.5152    -1.0040     2.7561 C.3     
  18 C18            0.7074    -0.4901    -1.2379 C.ar    
  19 C19            0.0297    -0.5195    -2.4486 C.ar    
  20 C20            0.6558    -0.9606    -3.5940 C.ar    
  21 C21            1.9805    -1.3808    -3.5390 C.ar    
  22 N22            2.8621    -1.8629    -4.4804 N.pl3   
  23 H23            2.6588    -1.9909    -5.4202 H       
  24 C24            4.0677    -2.1341    -3.8929 C.2     
  25 C25            5.2772    -2.6758    -4.6104 C.3     
  26 C26            4.0139    -1.8454    -2.5831 C.2     
  27 C27            2.6633    -1.3486    -2.3091 C.ar    
  28 C28            2.0111    -0.8931    -1.1621 C.ar    
  29 H29            1.0039     1.9031     0.0027 H       
  30 H30           -0.5459     1.8868    -0.8726 H       
  31 H31           -0.5289     1.8773     0.9072 H       
  32 H32           -1.8100    -0.7432    -0.8215 H       
  33 H33           -3.9699    -1.1807     3.3243 H       
  34 H34           -7.2233    -2.9758     1.9325 H       
  35 H35           -5.6871    -3.7697     3.6892 H       
  36 H36           -5.6422    -2.1416     4.4099 H       
  37 H37           -8.1099    -3.9167     4.1229 H       
  38 H38           -7.2390    -3.5671     5.6357 H       
  39 H39           -9.3382    -2.1150     3.0513 H       
  40 H40           -9.3249    -0.5074     3.8159 H       
  41 H41           -6.9289    -0.2543     3.2874 H       
  42 H42           -7.8502    -0.5968     1.8021 H       
  43 H43           -0.9990    -0.1936    -2.4934 H       
  44 H44            0.1196    -0.9804    -4.5313 H       
  45 H45            5.8807    -1.8476    -4.9817 H       
  46 H46            5.8699    -3.2767    -3.9206 H       
  47 H47            4.9558    -3.2952    -5.4478 H       
  48 H48            4.8146    -1.9579    -1.8670 H       
  49 H49            2.5335    -0.8633    -0.2173 H       
@<TRIPOS>BOND
   1    1    2 1
   2    1   29 1
   3    1   30 1
   4    1   31 1
   5    2    3 1
   6    2    4 1
   7    2   18 1
   8    4    5 am
   9    4   32 1
  10    5    6 2
  11    5    7 1
  12    7   11 1
  13    7    8 2
  14    8    9 1
  15    8   33 1
  16    9   10 2
  17    9   12 1
  18   10   11 1
  19   12   17 1
  20   12   13 1
  21   12   34 1
  22   13   14 1
  23   13   35 1
  24   13   36 1
  25   14   15 1
  26   14   37 1
  27   14   38 1
  28   15   16 1
  29   16   17 1
  30   16   39 1
  31   16   40 1
  32   17   41 1
  33   17   42 1
  34   18   28 ar
  35   18   19 ar
  36   19   20 ar
  37   19   43 1
  38   20   21 ar
  39   20   44 1
  40   21   27 ar
  41   21   22 1
  42   22   23 1
  43   22   24 1
  44   24   25 1
  45   24   26 2
  46   25   45 1
  47   25   46 1
  48   25   47 1
  49   26   27 1
  50   26   48 1
  51   27   28 ar
  52   28   49 1

#	End of record

