#	Name: ASD01140029
#	Creating user name:	WinNT
#	Creation time:	15. 06. 2019 18:59

#	Modifying user name:	WinNT
#	Modification time:	15. 06. 2019 18:59

#	Program:	/corina/corina34_cracker 3.40 0067  02.08.2006

@<TRIPOS>MOLECULE
ASD01140029
  57   61    0    0    0
SMALL
NO_CHARGES


@<TRIPOS>ATOM
   1 N1            -0.0497     1.3226     0.0865 N.pl3   
   2 C2            -0.0180    -0.0166     0.0731 C.2     
   3 C3             1.1626    -0.7251    -0.0084 C.2     
   4 C4             2.4310     0.0178    -0.0837 C.2     
   5 C5             2.3497     1.4890    -0.0665 C.ar    
   6 C6             3.4981     2.2796    -0.1342 C.ar    
   7 C7             3.3401     3.6597    -0.1133 C.ar    
   8 C8             2.0574     4.1943    -0.0267 C.ar    
   9 N9             0.9933     3.4228     0.0362 N.ar    
  10 C10            1.0858     2.0988     0.0200 C.ar    
  11 C11            1.1541    -2.1965    -0.0194 C.2     
  12 O12            1.4392    -2.8138     0.9892 O.2     
  13 N13            0.8305    -2.8601    -1.1469 N.am    
  14 O14            3.5021    -0.5589    -0.1567 O.2     
  15 N15            4.4556     4.5015    -0.1780 N.pl3   
  16 C16            5.5460     6.6546     0.3801 C.3     
  17 C17            4.2783     5.9556    -0.1553 C.3     
  18 C18            4.1705     6.5176    -1.5888 C.3     
  19 C19            4.8606     7.8639    -1.5393 C.ar    
  20 C20            4.8017     8.9354    -2.4149 C.ar    
  21 C21            5.5296    10.0812    -2.1611 C.ar    
  22 C22            6.3201    10.1599    -1.0296 C.ar    
  23 C23            6.3802     9.0926    -0.1553 C.ar    
  24 C24            5.6509     7.9426    -0.4080 C.ar    
  25 C25            0.9056    -4.3284    -1.2097 C.3     
  26 C26           -0.4232    -4.8573    -1.7616 C.3     
  27 O27           -0.7256    -4.1841    -2.9860 O.3     
  28 C28           -0.9125    -2.7735    -2.8476 C.3     
  29 C29            0.3858    -2.1382    -2.3496 C.3     
  30 C30           -1.7180     2.2114     1.6383 C.3     
  31 C31           -1.3507     1.9910     0.1695 C.3     
  32 H32           -0.9494    -0.5605     0.1284 H       
  33 H33            4.4789     1.8324    -0.2004 H       
  34 H34            1.9329     5.2670    -0.0103 H       
  35 H35            5.3465     4.1225    -0.2379 H       
  36 H36            5.4389     6.8694     1.4433 H       
  37 H37            6.4235     6.0319     0.2057 H       
  38 H38            3.4055     6.2286     0.4378 H       
  39 H39            4.6781     5.8581    -2.2927 H       
  40 H40            3.1244     6.6389    -1.8698 H       
  41 H41            4.1847     8.8745    -3.2992 H       
  42 H42            5.4818    10.9148    -2.8461 H       
  43 H43            6.8904    11.0551    -0.8298 H       
  44 H44            6.9979     9.1548     0.7284 H       
  45 H45            1.7213    -4.6264    -1.8684 H       
  46 H46            1.0741    -4.7304    -0.2107 H       
  47 H47           -0.3404    -5.9284    -1.9459 H       
  48 H48           -1.2174    -4.6719    -1.0384 H       
  49 H49           -1.1817    -2.3455    -3.8133 H       
  50 H50           -1.7085    -2.5805    -2.1284 H       
  51 H51            0.2121    -1.0899    -2.1071 H       
  52 H52            1.1517    -2.2150    -3.1213 H       
  53 H53           -1.7707     1.2493     2.1479 H       
  54 H54           -0.9591     2.8331     2.1133 H       
  55 H55           -2.6860     2.7087     1.7001 H       
  56 H56           -1.2980     2.9531    -0.3401 H       
  57 H57           -2.1096     1.3693    -0.3055 H       
@<TRIPOS>BOND
   1    1    2 1
   2    1   10 1
   3    1   31 1
   4    2    3 2
   5    2   32 1
   6    3    4 1
   7    3   11 1
   8    4    5 1
   9    4   14 2
  10    5    6 ar
  11    5   10 ar
  12    6    7 ar
  13    6   33 1
  14    7    8 ar
  15    7   15 1
  16    8    9 ar
  17    8   34 1
  18    9   10 ar
  19   11   12 2
  20   11   13 am
  21   13   25 1
  22   13   29 1
  23   15   17 1
  24   15   35 1
  25   16   17 1
  26   16   24 1
  27   16   36 1
  28   16   37 1
  29   17   18 1
  30   17   38 1
  31   18   19 1
  32   18   39 1
  33   18   40 1
  34   19   20 ar
  35   19   24 ar
  36   20   21 ar
  37   20   41 1
  38   21   22 ar
  39   21   42 1
  40   22   23 ar
  41   22   43 1
  42   23   24 ar
  43   23   44 1
  44   25   26 1
  45   25   45 1
  46   25   46 1
  47   26   27 1
  48   26   47 1
  49   26   48 1
  50   27   28 1
  51   28   29 1
  52   28   49 1
  53   28   50 1
  54   29   51 1
  55   29   52 1
  56   30   31 1
  57   30   53 1
  58   30   54 1
  59   30   55 1
  60   31   56 1
  61   31   57 1

#	End of record

