#	Name: ASD02038837
#	Creating user name:	WinNT
#	Creation time:	15. 06. 2019 20:17

#	Modifying user name:	WinNT
#	Modification time:	15. 06. 2019 20:17

#	Program:	/corina/corina34_cracker 3.40 0067  02.08.2006

@<TRIPOS>MOLECULE
ASD02038837
  52   55    0    0    0
SMALL
NO_CHARGES


@<TRIPOS>ATOM
   1 C1            -1.2823    -0.8512     0.4657 C.2     
   2 C2            -0.0606    -0.0343     0.3017 C.2     
   3 N3             1.1368    -0.6350     0.1536 N.am    
   4 C4             1.2418    -2.0930     0.2502 C.3     
   5 C5             1.2139    -2.6914    -1.1326 C.ar    
   6 C6             2.3333     0.1701    -0.1041 C.3     
   7 O7            -0.1363     1.1788     0.3004 O.2     
   8 N8            -1.3378    -2.1952     0.4971 N.2     
   9 C9            -2.5932    -2.5285     0.6569 C.2     
  10 N10           -3.3112    -1.3921     0.7240 N.pl3   
  11 N11           -2.5059    -0.3925     0.6124 N.2     
  12 C12            2.3968    -3.0123    -1.7678 C.ar    
  13 C13            2.1213     1.0142    -1.3646 C.3     
  14 C14            3.3441     1.9095    -1.5814 C.3     
  15 O15            3.5438     2.7284    -0.4274 O.3     
  16 C16            3.7940     1.9942     0.7728 C.3     
  17 C17            2.5893     1.1023     1.0842 C.3     
  18 C18            0.0031    -2.9230    -1.7596 C.ar    
  19 C19           -0.0313    -3.4727    -3.0283 C.ar    
  20 C20            1.1464    -3.7934    -3.6769 C.ar    
  21 C21            2.3706    -3.5659    -3.0459 C.ar    
  22 C22            3.6386    -3.9075    -3.7356 C.ar    
  23 C23            4.1977    -5.1771    -3.5848 C.ar    
  24 C24           -4.7630    -1.3062     0.9002 C.3     
  25 F25            1.1126    -4.3308    -4.9159 F       
  26 C26            5.3795    -5.4899    -4.2298 C.ar    
  27 C27            6.0089    -4.5457    -5.0242 C.ar    
  28 C28            5.4584    -3.2839    -5.1774 C.ar    
  29 C29            4.2737    -2.9622    -4.5421 C.ar    
  30 F30            7.1643    -4.8565    -5.6516 F       
  31 F31            3.7376    -1.7314    -4.6927 F       
  32 F32            3.5853    -6.0986    -2.8096 F       
  33 H33            2.1778    -2.3580     0.7420 H       
  34 H34            0.4042    -2.4800     0.8306 H       
  35 H35            3.1915    -0.4869    -0.2452 H       
  36 H36           -2.9827    -3.5337     0.7226 H       
  37 H37            3.3411    -2.8341    -1.2749 H       
  38 H38            1.9933     0.3577    -2.2253 H       
  39 H39            1.2330     1.6340    -1.2428 H       
  40 H40            4.2251     1.2886    -1.7434 H       
  41 H41            3.1806     2.5433    -2.4530 H       
  42 H42            4.6809     1.3743     0.6416 H       
  43 H43            3.9546     2.6890     1.5971 H       
  44 H44            1.7104     1.7239     1.2555 H       
  45 H45            2.7960     0.5088     1.9748 H       
  46 H46           -0.9194    -2.6738    -1.2563 H       
  47 H47           -0.9797    -3.6520    -3.5128 H       
  48 H48           -4.9982    -1.2662     1.9637 H       
  49 H49           -5.1356    -0.4059     0.4115 H       
  50 H50           -5.2354    -2.1825     0.4563 H       
  51 H51            5.8131    -6.4722    -4.1138 H       
  52 H52            5.9535    -2.5515    -5.7977 H       
@<TRIPOS>BOND
   1    1    2 1
   2    1    8 1
   3    1   11 2
   4    2    3 am
   5    2    7 2
   6    3    4 1
   7    3    6 1
   8    4    5 1
   9    4   33 1
  10    4   34 1
  11    5   12 ar
  12    5   18 ar
  13    6   13 1
  14    6   17 1
  15    6   35 1
  16    8    9 2
  17    9   10 1
  18    9   36 1
  19   10   11 1
  20   10   24 1
  21   12   21 ar
  22   12   37 1
  23   13   14 1
  24   13   38 1
  25   13   39 1
  26   14   15 1
  27   14   40 1
  28   14   41 1
  29   15   16 1
  30   16   17 1
  31   16   42 1
  32   16   43 1
  33   17   44 1
  34   17   45 1
  35   18   19 ar
  36   18   46 1
  37   19   20 ar
  38   19   47 1
  39   20   21 ar
  40   20   25 1
  41   21   22 1
  42   22   23 ar
  43   22   29 ar
  44   23   26 ar
  45   23   32 1
  46   24   48 1
  47   24   49 1
  48   24   50 1
  49   26   27 ar
  50   26   51 1
  51   27   28 ar
  52   27   30 1
  53   28   29 ar
  54   28   52 1
  55   29   31 1

#	End of record

