#	Name: ASD03498005
#	Creating user name:	WinNT
#	Creation time:	15. 06. 2019 20:42

#	Modifying user name:	WinNT
#	Modification time:	15. 06. 2019 20:42

#	Program:	/corina/corina34_cracker 3.40 0067  02.08.2006

@<TRIPOS>MOLECULE
ASD03498005
  30   32    0    0    0
SMALL
NO_CHARGES


@<TRIPOS>ATOM
   1 C1            -0.0160     1.3802     0.1081 C.ar    
   2 C2             0.0040     0.0186     0.3171 C.ar    
   3 C3             1.2420    -0.6510     0.4196 C.ar    
   4 C4             2.4437     0.0900     0.3054 C.ar    
   5 C5             2.3823     1.4819     0.0921 C.ar    
   6 C6             1.1691     2.1020    -0.0031 C.ar    
   7 C7             1.3047    -2.0372     0.6329 C.ar    
   8 C8             2.5166    -2.6504     0.7271 C.ar    
   9 C9             3.6991    -1.9218     0.6147 C.ar    
  10 C10            3.6759    -0.5766     0.4073 C.ar    
  11 C11            3.3341     4.1770    -1.3595 C.ar    
  12 C12            3.4221     3.5548    -0.1161 C.ar    
  13 O13            3.5277     2.2052    -0.0194 O.3     
  14 C14            3.2284     5.5513    -1.4165 C.ar    
  15 N15            3.2106     6.2748    -0.3129 N.ar    
  16 C16            3.2913     5.7224     0.8841 C.ar    
  17 C17            3.3994     4.3528     1.0249 C.ar    
  18 Cl18           3.2630     6.7302     2.2973 Cl      
  19 N19           -1.1923    -0.6938     0.4273 N.pl3   
  20 H20           -0.9627     1.8932     0.0250 H       
  21 H21            1.1285     3.1688    -0.1665 H       
  22 H22            0.3961    -2.6142     0.7223 H       
  23 H23            2.5622    -3.7169     0.8916 H       
  24 H24            4.6479    -2.4318     0.6934 H       
  25 H25            4.6003    -0.0247     0.3218 H       
  26 H26            3.3528     3.5916    -2.2669 H       
  27 H27            3.1597     6.0414    -2.3764 H       
  28 H28            3.4651     3.9068     2.0064 H       
  29 H29           -2.0412    -0.2300     0.3567 H       
  30 H30           -1.1741    -1.6524     0.5745 H       
@<TRIPOS>BOND
   1    1    2 ar
   2    1    6 ar
   3    1   20 1
   4    2    3 ar
   5    2   19 1
   6    3    4 ar
   7    3    7 ar
   8    4    5 ar
   9    4   10 ar
  10    5    6 ar
  11    5   13 1
  12    6   21 1
  13    7    8 ar
  14    7   22 1
  15    8    9 ar
  16    8   23 1
  17    9   10 ar
  18    9   24 1
  19   10   25 1
  20   11   12 ar
  21   11   14 ar
  22   11   26 1
  23   12   13 1
  24   12   17 ar
  25   14   15 ar
  26   14   27 1
  27   15   16 ar
  28   16   17 ar
  29   16   18 1
  30   17   28 1
  31   19   29 1
  32   19   30 1

#	End of record

