#	Name: ASD07932224
#	Creating user name:	WinNT
#	Creation time:	15. 06. 2019 21:14

#	Modifying user name:	WinNT
#	Modification time:	15. 06. 2019 21:14

#	Program:	/corina/corina34_cracker 3.40 0067  02.08.2006

@<TRIPOS>MOLECULE
ASD07932224
  71   73    0    0    0
SMALL
NO_CHARGES


@<TRIPOS>ATOM
   1 Cl1            0.0000     0.0000     0.0000 Cl      
   2 H2             0.0000     1.3700     0.0000 H       
   3 Cl3            5.0000     6.3700     5.0000 Cl      
   4 H4             5.0000     7.7400     5.0000 H       
   5 C5            10.9497    20.4467    13.0816 C.ar    
   6 C6            10.9800    19.0531    13.0781 C.ar    
   7 C7            12.1604    18.3791    12.9957 C.ar    
   8 C8            13.3648    19.0955    12.9130 C.ar    
   9 C9            13.3373    20.5148    12.9162 C.ar    
  10 C10           12.0964    21.1742    13.0028 C.ar    
  11 C11           14.6044    18.4341    12.8270 C.ar    
  12 C12           15.7370    19.1920    12.7496 C.ar    
  13 C13           15.6417    20.5916    12.7575 C.ar    
  14 N14           14.4760    21.2029    12.8384 N.ar    
  15 C15           16.8803    21.4023    12.6729 C.2     
  16 N16           16.8066    22.7480    12.6792 N.am    
  17 O17           17.9617    20.8534    12.5978 O.2     
  18 C18           18.0304    23.5490    12.5956 C.3     
  19 C19           17.7868    24.9241    13.2252 C.3     
  20 C20           19.0450    25.7810    13.0630 C.3     
  21 O21           19.3714    25.8879    11.6759 O.3     
  22 C22           19.6557    24.6374    11.0453 C.3     
  23 C23           18.4221    23.7345    11.1264 C.3     
  24 O24           17.4914    24.7676    14.6145 O.3     
  25 C25           14.6791    16.9290    12.8209 C.3     
  26 N26           14.4714    16.4229    14.1843 N.3     
  27 C27           14.1717    14.9854    14.1720 C.3     
  28 C28           13.8192    14.5244    15.5881 C.3     
  29 C29           14.9987    14.8110    16.5214 C.3     
  30 C30           15.3214    16.3072    16.4787 C.3     
  31 C31           15.6304    16.7165    15.0369 C.3     
  32 C32           14.6351    14.4142    17.9290 C.ar    
  33 C33           15.6289    14.2872    18.8813 C.ar    
  34 N34           13.3721    14.1973    18.2393 N.ar    
  35 C35           13.0073    13.8484    19.4577 C.ar    
  36 C36           13.9459    13.6971    20.4605 C.ar    
  37 C37           15.2838    13.9217    20.1733 C.ar    
  38 C38           16.3381    13.7668    21.2389 C.3     
  39 C39           16.1735    14.0416    16.0800 C.1     
  40 N40           17.0801    13.4479    15.7393 N.1     
  41 H41           10.0000    20.9571    13.1433 H       
  42 H42           10.0545    18.5002    13.1421 H       
  43 H43           12.1699    17.2992    12.9944 H       
  44 H44           12.0551    22.2534    13.0071 H       
  45 H45           16.7039    18.7155    12.6829 H       
  46 H46           15.9433    23.1862    12.7391 H       
  47 H47           18.8353    23.0418    13.1276 H       
  48 H48           16.9484    25.4099    12.7260 H       
  49 H49           18.8628    26.7751    13.4712 H       
  50 H50           19.8735    25.3150    13.5965 H       
  51 H51           19.9135    24.8077    10.0000 H       
  52 H52           20.4922    24.1565    11.5524 H       
  53 H53           18.6510    22.7645    10.6852 H       
  54 H54           17.5965    24.1963    10.5848 H       
  55 H55           17.3258    25.6002    15.0776 H       
  56 H56           13.9069    16.5295    12.1635 H       
  57 H57           15.6595    16.6153    12.4624 H       
  58 H58           13.3285    14.7958    13.5079 H       
  59 H59           15.0437    14.4356    13.8177 H       
  60 H60           12.9390    15.0639    15.9379 H       
  61 H61           13.6120    13.4543    15.5815 H       
  62 H62           14.4648    16.8747    16.8425 H       
  63 H63           16.1875    16.5108    17.1084 H       
  64 H64           16.4955    16.1586    14.6784 H       
  65 H65           15.8466    17.7842    15.0008 H       
  66 H66           16.6613    14.4700    18.6221 H       
  67 H67           11.9628    13.6792    19.6743 H       
  68 H68           13.6408    13.4118    21.4565 H       
  69 H69           16.7038    12.7400    21.2417 H       
  70 H70           17.1651    14.4465    21.0332 H       
  71 H71           15.9080    14.0020    22.2124 H       
@<TRIPOS>BOND
   1    1    2 1
   2    3    4 1
   3    5    6 ar
   4    5   10 ar
   5    5   41 1
   6    6    7 ar
   7    6   42 1
   8    7    8 ar
   9    7   43 1
  10    8    9 ar
  11    8   11 ar
  12    9   10 ar
  13    9   14 ar
  14   10   44 1
  15   11   12 ar
  16   11   25 1
  17   12   13 ar
  18   12   45 1
  19   13   14 ar
  20   13   15 1
  21   15   16 am
  22   15   17 2
  23   16   18 1
  24   16   46 1
  25   18   19 1
  26   18   23 1
  27   18   47 1
  28   19   20 1
  29   19   24 1
  30   19   48 1
  31   20   21 1
  32   20   49 1
  33   20   50 1
  34   21   22 1
  35   22   23 1
  36   22   51 1
  37   22   52 1
  38   23   53 1
  39   23   54 1
  40   24   55 1
  41   25   26 1
  42   25   56 1
  43   25   57 1
  44   26   27 1
  45   26   31 1
  46   27   28 1
  47   27   58 1
  48   27   59 1
  49   28   29 1
  50   28   60 1
  51   28   61 1
  52   29   30 1
  53   29   32 1
  54   29   39 1
  55   30   31 1
  56   30   62 1
  57   30   63 1
  58   31   64 1
  59   31   65 1
  60   32   33 ar
  61   32   34 ar
  62   33   37 ar
  63   33   66 1
  64   34   35 ar
  65   35   36 ar
  66   35   67 1
  67   36   37 ar
  68   36   68 1
  69   37   38 1
  70   38   69 1
  71   38   70 1
  72   38   71 1
  73   39   40 3

#	End of record

