#	Name: ASD01811365
#	Creating user name:	WinNT
#	Creation time:	15. 06. 2019 19:26

#	Modifying user name:	WinNT
#	Modification time:	15. 06. 2019 19:26

#	Program:	/corina/corina34_cracker 3.40 0067  02.08.2006

@<TRIPOS>MOLECULE
ASD01811365
  44   46    0    0    0
SMALL
NO_CHARGES


@<TRIPOS>ATOM
   1 C1             2.1090    -2.2535    -1.7772 C.2     
   2 C2             1.0344    -1.8127    -0.8645 C.ar    
   3 C3             1.2631    -0.7705     0.0366 C.ar    
   4 C4             0.2555    -0.3632     0.8858 C.ar    
   5 C5            -0.9802    -0.9846     0.8469 C.ar    
   6 C6            -1.2141    -2.0186    -0.0433 C.ar    
   7 C7            -0.2160    -2.4322    -0.9029 C.ar    
   8 O8             3.1583    -1.6431    -1.8196 O.2     
   9 O9             1.9274    -3.3358    -2.5585 O.3     
  10 Br10          -2.9065    -2.8610    -0.0876 Br      
  11 N11            4.1586     2.3435     0.1003 N.3     
  12 C12            4.1342     1.4939    -1.0972 C.3     
  13 C13            2.7933     0.7605    -1.1767 C.3     
  14 C14            2.6083    -0.0927     0.0812 C.3     
  15 C15            2.6861     0.8093     1.3161 C.3     
  16 C16            4.0301     1.5412     1.3234 C.3     
  17 O17            3.6390    -1.0805     0.1441 O.3     
  18 C18            5.3742     3.1675     0.1365 C.3     
  19 C19            5.2532     4.1934     1.2337 C.ar    
  20 C20            5.6949     3.8964     2.5094 C.ar    
  21 C21            5.5839     4.8375     3.5159 C.ar    
  22 C22            5.0315     6.0757     3.2465 C.ar    
  23 C23            4.5906     6.3730     1.9705 C.ar    
  24 C24            4.7056     5.4335     0.9631 C.ar    
  25 H25            0.4316     0.4424     1.5832 H       
  26 H26           -1.7656    -0.6616     1.5141 H       
  27 H27           -0.4008    -3.2358    -1.6004 H       
  28 H28            2.6590    -3.5858    -3.1393 H       
  29 H29            4.2626     2.1134    -1.9848 H       
  30 H30            4.9436     0.7658    -1.0424 H       
  31 H31            1.9843     1.4878    -1.2454 H       
  32 H32            2.7816     0.1181    -2.0572 H       
  33 H33            1.8754     1.5373     1.2866 H       
  34 H34            2.5977     0.2016     2.2167 H       
  35 H35            4.8399     0.8129     1.3668 H       
  36 H36            4.0828     2.1950     2.1939 H       
  37 H37            3.5846    -1.6568     0.9186 H       
  38 H38            6.2386     2.5316     0.3274 H       
  39 H39            5.4993     3.6728    -0.8212 H       
  40 H40            6.1265     2.9290     2.7199 H       
  41 H41            5.9283     4.6052     4.5128 H       
  42 H42            4.9441     6.8107     4.0330 H       
  43 H43            4.1587     7.3403     1.7601 H       
  44 H44            4.3645     5.6671    -0.0347 H       
@<TRIPOS>BOND
   1    1    2 1
   2    1    8 2
   3    1    9 1
   4    2    3 ar
   5    2    7 ar
   6    3    4 ar
   7    3   14 1
   8    4    5 ar
   9    4   25 1
  10    5    6 ar
  11    5   26 1
  12    6    7 ar
  13    6   10 1
  14    7   27 1
  15    9   28 1
  16   11   12 1
  17   11   16 1
  18   11   18 1
  19   12   13 1
  20   12   29 1
  21   12   30 1
  22   13   14 1
  23   13   31 1
  24   13   32 1
  25   14   15 1
  26   14   17 1
  27   15   16 1
  28   15   33 1
  29   15   34 1
  30   16   35 1
  31   16   36 1
  32   17   37 1
  33   18   19 1
  34   18   38 1
  35   18   39 1
  36   19   20 ar
  37   19   24 ar
  38   20   21 ar
  39   20   40 1
  40   21   22 ar
  41   21   41 1
  42   22   23 ar
  43   22   42 1
  44   23   24 ar
  45   23   43 1
  46   24   44 1

#	End of record

