#	Name: ASD01884009
#	Creating user name:	WinNT
#	Creation time:	15. 06. 2019 19:47

#	Modifying user name:	WinNT
#	Modification time:	15. 06. 2019 19:47

#	Program:	/corina/corina34_cracker 3.40 0067  02.08.2006

@<TRIPOS>MOLECULE
ASD01884009
  48   51    0    0    0
SMALL
NO_CHARGES


@<TRIPOS>ATOM
   1 C1            -0.0115     1.4253     0.0735 C.3     
   2 O2             0.0105    -0.0033     0.0975 O.3     
   3 C3            -1.1754    -0.6353     0.3003 C.ar    
   4 C4            -2.3370     0.1045     0.4670 C.ar    
   5 C5            -3.5422    -0.5391     0.6732 C.ar    
   6 C6            -3.5922    -1.9196     0.7141 C.ar    
   7 C7            -2.4342    -2.6616     0.5486 C.ar    
   8 F8            -2.4851    -4.0110     0.5889 F       
   9 C9            -1.2267    -2.0210     0.3353 C.ar    
  10 C10            0.0324    -2.8276     0.1478 C.3     
  11 C11            0.2787    -3.6847     1.3915 C.3     
  12 C12            1.5775    -4.4770     1.2118 C.3     
  13 N13            1.4961    -5.2405    -0.0409 N.pl3   
  14 C14            1.1744    -4.5263    -1.2839 C.3     
  15 C15           -0.1199    -3.7335    -1.0762 C.3     
  16 C16            1.7205    -6.6166    -0.0499 C.2     
  17 C17            0.8533    -7.4773     0.6489 C.2     
  18 N18            1.0481    -8.7682     0.6515 N.2     
  19 N19            2.1224    -9.3306    -0.0393 N.pl3   
  20 C20            2.5680   -10.6030    -0.2135 C.2     
  21 C21            1.9439   -11.8509     0.3562 C.3     
  22 C22            0.9103   -12.3998    -0.6293 C.3     
  23 F23            1.5379   -12.7041    -1.8420 F       
  24 F24            0.3310   -13.5582    -0.1004 F       
  25 F25           -0.0831   -11.4390    -0.8465 F       
  26 N26            3.6370   -10.5475    -0.9666 N.2     
  27 N27            3.8989    -9.3272    -1.2812 N.2     
  28 C28            2.9950    -8.5283    -0.7356 C.2     
  29 C29            2.7900    -7.1383    -0.7486 C.2     
  30 Cl30           3.8673    -6.0949    -1.6229 Cl      
  31 H31            0.9974     1.8014    -0.0960 H       
  32 H32           -0.6656     1.7652    -0.7295 H       
  33 H33           -0.3831     1.7990     1.0276 H       
  34 H34           -2.2993     1.1834     0.4359 H       
  35 H35           -4.4462     0.0374     0.8029 H       
  36 H36           -4.5352    -2.4206     0.8758 H       
  37 H37            0.8762    -2.1540    -0.0017 H       
  38 H38            0.3638    -3.0403     2.2665 H       
  39 H39           -0.5531    -4.3758     1.5276 H       
  40 H40            2.4218    -3.7891     1.1662 H       
  41 H41            1.7065    -5.1621     2.0496 H       
  42 H42            1.9858    -3.8424    -1.5330 H       
  43 H43            1.0374    -5.2440    -2.0927 H       
  44 H44           -0.9480    -4.4242    -0.9168 H       
  45 H45           -0.3185    -3.1238    -1.9576 H       
  46 H46            0.0154    -7.0641     1.1908 H       
  47 H47            2.7179   -12.5995     0.5254 H       
  48 H48            1.4550   -11.6137     1.3011 H       
@<TRIPOS>BOND
   1    1    2 1
   2    1   31 1
   3    1   32 1
   4    1   33 1
   5    2    3 1
   6    3    9 ar
   7    3    4 ar
   8    4    5 ar
   9    4   34 1
  10    5    6 ar
  11    5   35 1
  12    6    7 ar
  13    6   36 1
  14    7    8 1
  15    7    9 ar
  16    9   10 1
  17   10   15 1
  18   10   11 1
  19   10   37 1
  20   11   12 1
  21   11   38 1
  22   11   39 1
  23   12   13 1
  24   12   40 1
  25   12   41 1
  26   13   14 1
  27   13   16 1
  28   14   15 1
  29   14   42 1
  30   14   43 1
  31   15   44 1
  32   15   45 1
  33   16   29 2
  34   16   17 1
  35   17   18 2
  36   17   46 1
  37   18   19 1
  38   19   28 1
  39   19   20 1
  40   20   21 1
  41   20   26 2
  42   21   22 1
  43   21   47 1
  44   21   48 1
  45   22   23 1
  46   22   24 1
  47   22   25 1
  48   26   27 1
  49   27   28 2
  50   28   29 1
  51   29   30 1

#	End of record

