#	Name: ASD01813041
#	Creating user name:	WinNT
#	Creation time:	15. 06. 2019 19:29

#	Modifying user name:	WinNT
#	Modification time:	15. 06. 2019 19:29

#	Program:	/corina/corina34_cracker 3.40 0067  02.08.2006

@<TRIPOS>MOLECULE
ASD01813041
  50   53    0    0    0
SMALL
NO_CHARGES


@<TRIPOS>ATOM
   1 C1            -1.9066     1.4014     0.0374 C.2     
   2 C2            -2.0104     0.0627     0.0827 C.2     
   3 N3            -0.9002    -0.7284    -0.0086 N.pl3   
   4 C4             0.3412    -0.2442    -0.1331 C.2     
   5 C5             0.5526     1.1196    -0.1788 C.2     
   6 C6            -0.6214     1.9978    -0.0941 C.2     
   7 O7            -0.4970     3.2118    -0.1282 O.2     
   8 C8            -1.0779    -2.1820     0.0326 C.3     
   9 C9            -0.8981    -2.6702     1.4469 C.ar    
  10 C10           -3.0929     2.3253     0.1129 C.3     
  11 C11           -4.3117     1.5969     0.6750 C.3     
  12 C12           -4.4910     0.2909    -0.1090 C.3     
  13 C13           -3.3353    -0.6415     0.2447 C.3     
  14 C14           -2.0041    -2.8622     2.2554 C.ar    
  15 C15           -1.8455    -3.3091     3.5514 C.ar    
  16 C16           -0.5678    -3.5671     4.0454 C.ar    
  17 C17            0.5430    -3.3718     3.2260 C.ar    
  18 C18            0.3719    -2.9300     1.9299 C.ar    
  19 C19           -0.3908    -4.0470     5.4371 C.ar    
  20 C20            0.8894    -4.3042     5.9281 C.ar    
  21 C21            1.0551    -4.7502     7.2198 C.ar    
  22 C22           -0.0599    -4.9449     8.0396 C.ar    
  23 C23           -1.3418    -4.6863     7.5466 C.ar    
  24 C24           -1.5043    -4.2354     6.2562 C.ar    
  25 O25           -2.7743     3.4317     0.9594 O.3     
  26 C26            1.9088     1.6745    -0.3124 C.2     
  27 O27            2.8660     0.9290    -0.3846 O.2     
  28 O28            2.0896     3.0095    -0.3547 O.3     
  29 C29            0.1109    -5.4092     9.3835 C.1     
  30 N30            0.2464    -5.7776    10.4495 N.1     
  31 H31            1.1797    -0.9218    -0.1978 H       
  32 H32           -2.0795    -2.4356    -0.3147 H       
  33 H33           -0.3386    -2.6568    -0.6124 H       
  34 H34           -3.3245     2.6941    -0.8863 H       
  35 H35           -4.1529     1.3739     1.7300 H       
  36 H36           -5.1985     2.2201     0.5594 H       
  37 H37           -5.4370    -0.1757     0.1656 H       
  38 H38           -4.4804     0.4999    -1.1787 H       
  39 H39           -3.3621    -1.5111    -0.4119 H       
  40 H40           -3.4429    -0.9700     1.2784 H       
  41 H41           -2.9935    -2.6616     1.8717 H       
  42 H42           -2.7096    -3.4582     4.1818 H       
  43 H43            1.5353    -3.5701     3.6035 H       
  44 H44            1.2317    -2.7784     1.2942 H       
  45 H45            1.7509    -4.1537     5.2944 H       
  46 H46            2.0463    -4.9499     7.5995 H       
  47 H47           -2.2044    -4.8367     8.1790 H       
  48 H48           -2.4948    -4.0356     5.8749 H       
  49 H49           -3.4924     4.0719     1.0569 H       
  50 H50            2.9987     3.3268    -0.4432 H       
@<TRIPOS>BOND
   1    1    2 2
   2    1   10 1
   3    1    6 1
   4    2    3 1
   5    2   13 1
   6    3    4 1
   7    3    8 1
   8    4    5 2
   9    4   31 1
  10    5    6 1
  11    5   26 1
  12    6    7 2
  13    8    9 1
  14    8   32 1
  15    8   33 1
  16    9   14 ar
  17    9   18 ar
  18   10   11 1
  19   10   25 1
  20   10   34 1
  21   11   12 1
  22   11   35 1
  23   11   36 1
  24   12   13 1
  25   12   37 1
  26   12   38 1
  27   13   39 1
  28   13   40 1
  29   14   15 ar
  30   14   41 1
  31   15   16 ar
  32   15   42 1
  33   16   17 ar
  34   16   19 1
  35   17   18 ar
  36   17   43 1
  37   18   44 1
  38   19   20 ar
  39   19   24 ar
  40   20   21 ar
  41   20   45 1
  42   21   22 ar
  43   21   46 1
  44   22   23 ar
  45   22   29 1
  46   23   24 ar
  47   23   47 1
  48   24   48 1
  49   25   49 1
  50   26   27 2
  51   26   28 1
  52   28   50 1
  53   29   30 3

#	End of record

