#	Name: ASD03092107
#	Creating user name:	WinNT
#	Creation time:	15. 06. 2019 20:32

#	Modifying user name:	WinNT
#	Modification time:	15. 06. 2019 20:32

#	Program:	/corina/corina34_cracker 3.40 0067  02.08.2006

@<TRIPOS>MOLECULE
ASD03092107
  53   55    0    0    0
SMALL
NO_CHARGES


@<TRIPOS>ATOM
   1 N1             0.1380     1.5173     0.0349 N.am    
   2 C2             0.1260     0.1487    -0.0403 C.2     
   3 C3            -1.1785    -0.2447    -0.0868 C.2     
   4 C4            -1.9773     0.9091    -0.0389 C.2     
   5 N5            -1.1918     1.9572     0.0388 N.2     
   6 N6            -3.3743     0.9363    -0.0645 N.pl3   
   7 C7            -4.0523     2.1482     0.0879 C.ar    
   8 C8            -3.5066     3.3197    -0.4225 C.ar    
   9 C9            -4.1773     4.5180    -0.2716 C.ar    
  10 C10           -5.3917     4.5551     0.3867 C.ar    
  11 C11           -5.2752     2.1829     0.7447 C.ar    
  12 C12            1.3095    -0.7375    -0.0666 C.ar    
  13 C13            1.2336     2.2996     0.0993 C.2     
  14 C14            1.3018    -1.9679     0.6006 C.ar    
  15 C15            2.4276    -2.7631     0.5498 C.ar    
  16 N16            3.5000    -2.3777    -0.1153 N.ar    
  17 C17            3.5493    -1.2262    -0.7577 C.ar    
  18 C18            2.4665    -0.3719    -0.7643 C.ar    
  19 C19            4.8038    -0.8420    -1.4992 C.3     
  20 C20           -5.9420     3.3879     0.8984 C.ar    
  21 N21            1.1075     3.6408     0.0560 N.am    
  22 O22            2.3351     1.7958     0.1964 O.2     
  23 C23            2.2984     4.4912     0.1261 C.3     
  24 C24            2.4332    -4.0900     1.2642 C.3     
  25 C25            1.8801     5.9613     0.0572 C.3     
  26 C26           -3.5832     5.7873    -0.8256 C.3     
  27 F27           -4.0247     5.9739    -2.1399 F       
  28 F28           -3.9859     6.8724    -0.0398 F       
  29 F29           -2.1874     5.6938    -0.8114 F       
  30 O30           -7.1364     3.4262     1.5455 O.3     
  31 C31           -7.6431     2.1873     2.0461 C.3     
  32 F32           -6.7351     1.6492     2.9644 F       
  33 F33           -8.8712     2.4074     2.6790 F       
  34 F34           -7.8189     1.2926     0.9851 F       
  35 H35           -1.5342    -1.2625    -0.1496 H       
  36 H36           -3.8732     0.1136    -0.1882 H       
  37 H37           -2.5575     3.2935    -0.9371 H       
  38 H38           -5.9132     5.4935     0.5037 H       
  39 H39           -5.7039     1.2732     1.1385 H       
  40 H40            0.4277    -2.2896     1.1473 H       
  41 H41            2.5138     0.5689    -1.2925 H       
  42 H42            4.7456    -1.2064    -2.5248 H       
  43 H43            4.9047     0.2433    -1.5044 H       
  44 H44            5.6682    -1.2850    -1.0047 H       
  45 H45            0.2282     4.0430    -0.0215 H       
  46 H46            2.8223     4.3061     1.0638 H       
  47 H47            2.9585     4.2616    -0.7104 H       
  48 H48            2.0734    -4.8672     0.5899 H       
  49 H49            3.4483    -4.3269     1.5829 H       
  50 H50            1.7818    -4.0358     2.1365 H       
  51 H51            1.3561     6.1463    -0.8805 H       
  52 H52            1.2200     6.1908     0.8937 H       
  53 H53            2.7661     6.5939     0.1093 H       
@<TRIPOS>BOND
   1    1    2 1
   2    1   13 am
   3    1    5 1
   4    2    3 2
   5    2   12 1
   6    3    4 1
   7    3   35 1
   8    4    5 2
   9    4    6 1
  10    6    7 1
  11    6   36 1
  12    7    8 ar
  13    7   11 ar
  14    8    9 ar
  15    8   37 1
  16    9   10 ar
  17    9   26 1
  18   10   20 ar
  19   10   38 1
  20   11   20 ar
  21   11   39 1
  22   12   14 ar
  23   12   18 ar
  24   13   21 am
  25   13   22 2
  26   14   15 ar
  27   14   40 1
  28   15   16 ar
  29   15   24 1
  30   16   17 ar
  31   17   18 ar
  32   17   19 1
  33   18   41 1
  34   19   42 1
  35   19   43 1
  36   19   44 1
  37   20   30 1
  38   21   23 1
  39   21   45 1
  40   23   25 1
  41   23   46 1
  42   23   47 1
  43   24   48 1
  44   24   49 1
  45   24   50 1
  46   25   51 1
  47   25   52 1
  48   25   53 1
  49   26   27 1
  50   26   28 1
  51   26   29 1
  52   30   31 1
  53   31   32 1
  54   31   33 1
  55   31   34 1

#	End of record

