#	Name: ASD01915295
#	Creating user name:	WinNT
#	Creation time:	15. 06. 2019 20:05

#	Modifying user name:	WinNT
#	Modification time:	15. 06. 2019 20:05

#	Program:	/corina/corina34_cracker 3.40 0067  02.08.2006

@<TRIPOS>MOLECULE
ASD01915295
  41   43    0    0    0
SMALL
NO_CHARGES


@<TRIPOS>ATOM
   1 C1            -0.0184     1.5028     0.0103 C.2     
   2 C2             0.0021    -0.0041     0.0020 C.3     
   3 N3             1.1395     2.1925     0.0030 N.am    
   4 O4            -1.0768     2.0948     0.0185 O.2     
   5 O5            -1.3386    -0.4987     0.0122 O.3     
   6 C6            -1.4321    -1.9246     0.0054 C.3     
   7 C7            -2.8826    -2.3330     0.0171 C.ar    
   8 C8            -3.5594    -2.5138    -1.1747 C.ar    
   9 C9            -4.8899    -2.8884    -1.1640 C.ar    
  10 C10           -5.5437    -3.0825     0.0384 C.ar    
  11 C11           -4.8667    -2.9025     1.2302 C.ar    
  12 C12           -3.5349    -2.5322     1.2194 C.ar    
  13 C13            1.1422     3.6632     0.0108 C.3     
  14 C14            2.0647     4.1423     1.1368 C.3     
  15 N15            3.3860     3.5196     0.9813 N.3     
  16 C16            3.3056     2.0588     1.1137 C.3     
  17 C17            2.4340     1.4943    -0.0070 C.3     
  18 C18            4.2948     4.0508     1.8831 C.2     
  19 N19            5.5385     3.6965     1.9805 N.2     
  20 C20            6.2639     4.3098     2.8987 C.2     
  21 C21            5.6022     5.2237     3.6090 C.2     
  22 S22            3.9412     5.2738     3.0243 S.3     
  23 H23            0.5123    -0.3556    -0.8948 H       
  24 H24            0.5293    -0.3651     0.8851 H       
  25 H25           -0.9516    -2.3160    -0.8913 H       
  26 H26           -0.9346    -2.3255     0.8885 H       
  27 H27           -3.0486    -2.3622    -2.1141 H       
  28 H28           -5.4189    -3.0290    -2.0951 H       
  29 H29           -6.5835    -3.3744     0.0468 H       
  30 H30           -5.3776    -3.0538     2.1696 H       
  31 H31           -3.0060    -2.3916     2.1505 H       
  32 H32            1.5096     4.0339    -0.9462 H       
  33 H33            0.1308     4.0303     0.1850 H       
  34 H34            2.1655     5.2265     1.0879 H       
  35 H35            1.6402     3.8592     2.1000 H       
  36 H36            4.3064     1.6320     1.0480 H       
  37 H37            2.8639     1.8047     2.0772 H       
  38 H38            2.2777     0.4275     0.1527 H       
  39 H39            2.9230     1.6557    -0.9677 H       
  40 H40            7.3084     4.0884     3.0611 H       
  41 H41            6.0139     5.8305     4.4019 H       
@<TRIPOS>BOND
   1    1    2 1
   2    1    3 am
   3    1    4 2
   4    2    5 1
   5    2   23 1
   6    2   24 1
   7    3   13 1
   8    3   17 1
   9    5    6 1
  10    6    7 1
  11    6   25 1
  12    6   26 1
  13    7    8 ar
  14    7   12 ar
  15    8    9 ar
  16    8   27 1
  17    9   10 ar
  18    9   28 1
  19   10   11 ar
  20   10   29 1
  21   11   12 ar
  22   11   30 1
  23   12   31 1
  24   13   14 1
  25   13   32 1
  26   13   33 1
  27   14   15 1
  28   14   34 1
  29   14   35 1
  30   15   16 1
  31   15   18 1
  32   16   17 1
  33   16   36 1
  34   16   37 1
  35   17   38 1
  36   17   39 1
  37   18   19 2
  38   18   22 1
  39   19   20 1
  40   20   21 2
  41   20   40 1
  42   21   22 1
  43   21   41 1

#	End of record

