#	Name: ASD05720165
#	Creating user name:	WinNT
#	Creation time:	15. 06. 2019 21:01

#	Modifying user name:	WinNT
#	Modification time:	15. 06. 2019 21:01

#	Program:	/corina/corina34_cracker 3.40 0067  02.08.2006

@<TRIPOS>MOLECULE
ASD05720165
  51   56    0    0    0
SMALL
NO_CHARGES


@<TRIPOS>ATOM
   1 O1            -0.0161     1.3334     0.0094 O.3     
   2 C2             0.0021    -0.0041     0.0020 C.2     
   3 N3             1.2348    -0.5293    -0.0126 N.am    
   4 C4             2.2183     0.5645    -0.0161 C.3     
   5 C5             1.3508     1.8379    -0.0010 C.3     
   6 O6            -1.0069    -0.6808     0.0084 O.2     
   7 C7             3.0621     0.5136    -1.2636 C.ar    
   8 C8             4.3275     1.0698    -1.2556 C.ar    
   9 C9             5.0958     1.0173    -2.4083 C.ar    
  10 C10            4.5603     0.4045    -3.5311 C.ar    
  11 C11            3.2876    -0.1296    -3.4641 C.ar    
  12 N12            2.5870    -0.0658    -2.3486 N.ar    
  13 C13            5.3559     0.3225    -4.8082 C.3     
  14 F14            6.1076    -0.8574    -4.8145 F       
  15 F15            4.4837     0.3255    -5.9021 F       
  16 F16            6.2151     1.4233    -4.8939 F       
  17 C17            3.0997    -3.5830    -0.0446 C.2     
  18 N18            2.7934    -2.2820    -0.0358 N.2     
  19 C19            1.5348    -1.8852    -0.0220 C.2     
  20 C20            0.4948    -2.8369    -0.0165 C.2     
  21 C21            0.8012    -4.1542    -0.0253 C.2     
  22 N22            2.1144    -4.5345    -0.0395 N.pl3   
  23 N23            2.7294    -5.7914    -0.0515 N.2     
  24 C24            4.0306    -5.6364    -0.0634 C.2     
  25 C25            4.3226    -4.2670    -0.0650 C.2     
  26 C26            5.6706    -3.6561    -0.0831 C.ar    
  27 C27            6.6407    -4.0788     0.8272 C.ar    
  28 C28            7.8966    -3.5089     0.8095 C.ar    
  29 C29            8.1963    -2.5093    -0.1195 C.ar    
  30 C30            7.2260    -2.0883    -1.0281 C.ar    
  31 C31            5.9737    -2.6612    -1.0144 C.ar    
  32 N32           11.2830    -0.6691    -0.6320 N.pl3   
  33 N33            9.9472    -0.9508    -0.9614 N.2     
  34 C34            9.5460    -1.8958    -0.1389 C.2     
  35 N35           10.5598    -2.2120     0.6787 N.2     
  36 C36           11.6046    -1.4818     0.3903 C.2     
  37 F37            8.8363    -3.9168     1.6903 F       
  38 H38            2.8457     0.5180     0.8740 H       
  39 H39            1.5314     2.4339    -0.8956 H       
  40 H40            1.5485     2.4243     0.8964 H       
  41 H41            4.7127     1.5397    -0.3627 H       
  42 H42            6.0878     1.4438    -2.4314 H       
  43 H43            2.8633    -0.6086    -4.3342 H       
  44 H44           -0.5367    -2.5172    -0.0049 H       
  45 H45            0.0174    -4.8972    -0.0209 H       
  46 H46            4.7584    -6.4342    -0.0738 H       
  47 H47            6.4080    -4.8513     1.5451 H       
  48 H48            7.4581    -1.3156    -1.7461 H       
  49 H49            5.2243    -2.3375    -1.7215 H       
  50 H50           11.8615    -0.0190    -1.0605 H       
  51 H51           12.5623    -1.5238     0.8878 H       
@<TRIPOS>BOND
   1    1    2 1
   2    1    5 1
   3    2    3 am
   4    2    6 2
   5    3    4 1
   6    3   19 1
   7    4    5 1
   8    4    7 1
   9    4   38 1
  10    5   39 1
  11    5   40 1
  12    7    8 ar
  13    7   12 ar
  14    8    9 ar
  15    8   41 1
  16    9   10 ar
  17    9   42 1
  18   10   11 ar
  19   10   13 1
  20   11   12 ar
  21   11   43 1
  22   13   14 1
  23   13   15 1
  24   13   16 1
  25   17   18 1
  26   17   22 1
  27   17   25 2
  28   18   19 2
  29   19   20 1
  30   20   21 2
  31   20   44 1
  32   21   22 1
  33   21   45 1
  34   22   23 1
  35   23   24 2
  36   24   25 1
  37   24   46 1
  38   25   26 1
  39   26   27 ar
  40   26   31 ar
  41   27   28 ar
  42   27   47 1
  43   28   29 ar
  44   28   37 1
  45   29   30 ar
  46   29   34 1
  47   30   31 ar
  48   30   48 1
  49   31   49 1
  50   32   33 1
  51   32   36 1
  52   32   50 1
  53   33   34 2
  54   34   35 1
  55   35   36 2
  56   36   51 1

#	End of record

