#	Name: ASD07300631
#	Creating user name:	WinNT
#	Creation time:	15. 06. 2019 21:10

#	Modifying user name:	WinNT
#	Modification time:	15. 06. 2019 21:10

#	Program:	/corina/corina34_cracker 3.40 0067  02.08.2006

@<TRIPOS>MOLECULE
ASD07300631
  18   19    0    0    0
SMALL
NO_CHARGES


@<TRIPOS>ATOM
   1 C1            -0.0171     1.4116     0.0098 C.2     
   2 C2             0.0021    -0.0041     0.0020 C.2     
   3 N3             1.1768     2.0877     0.0020 N.pl3   
   4 N4             1.1551    -0.6379    -0.0124 N.2     
   5 C5             2.3139     0.0288    -0.0199 C.2     
   6 C6             2.3473     1.3762    -0.0126 C.2     
   7 N7            -0.9925     2.3037     0.0292 N.2     
   8 C8            -0.4649     3.5283     0.0277 C.2     
   9 C9             0.8849     3.4163     0.0119 C.2     
  10 C10           -1.2403     4.8204     0.0458 C.3     
  11 F11           -2.6051     4.5434     0.1799 F       
  12 F12           -0.8154     5.6042     1.1238 F       
  13 F13           -1.0204     5.5130    -1.1497 F       
  14 O14           -1.1600    -0.7020     0.0098 O.3     
  15 H15            3.2420    -0.5235    -0.0317 H       
  16 H16            3.2952     1.8939    -0.0186 H       
  17 H17            1.5960     4.2292     0.0095 H       
  18 H18           -1.0423    -1.6618     0.0035 H       
@<TRIPOS>BOND
   1    1    2 1
   2    1    3 1
   3    1    7 2
   4    2    4 2
   5    2   14 1
   6    3    6 1
   7    3    9 1
   8    4    5 1
   9    5    6 2
  10    5   15 1
  11    6   16 1
  12    7    8 1
  13    8    9 2
  14    8   10 1
  15    9   17 1
  16   10   11 1
  17   10   12 1
  18   10   13 1
  19   14   18 1

#	End of record

