#	Name: ASD02508028
#	Creating user name:	WinNT
#	Creation time:	15. 06. 2019 20:23

#	Modifying user name:	WinNT
#	Modification time:	15. 06. 2019 20:23

#	Program:	/corina/corina34_cracker 3.40 0067  02.08.2006

@<TRIPOS>MOLECULE
ASD02508028
  59   61    0    0    0
SMALL
NO_CHARGES


@<TRIPOS>ATOM
   1 C1             0.0192     0.6577     0.9655 C.ar    
   2 C2            -0.5643    -0.5443     1.3160 C.ar    
   3 C3             0.2303    -1.6067     1.7256 C.ar    
   4 C4             1.6101    -1.4570     1.7815 C.ar    
   5 C5             2.1872    -0.2528     1.4298 C.ar    
   6 C6             1.3930     0.8035     1.0222 C.ar    
   7 N7            -0.3576    -2.8254     2.0818 N.am    
   8 C8             0.1914    -3.5797     3.0545 C.2     
   9 O9             1.2396    -3.2437     3.5637 O.2     
  10 C10           -0.4973    -4.8407     3.5094 C.3     
  11 S11           -0.9877     2.0042     0.4385 S.o2    
  12 O12           -0.1542     2.8450    -0.3474 O.2     
  13 O13           -2.1964     1.4357    -0.0463 O.2     
  14 N14           -1.3888     2.8743     1.7892 N.am    
  15 C15           -0.6158     4.0652     2.1688 C.3     
  16 C16           -2.5281     2.4729     2.6264 C.3     
  17 C17           -3.4856     3.6640     2.7548 C.3     
  18 N18           -2.7092     4.8516     3.1375 N.am    
  19 C19           -1.5774     5.2529     2.2981 C.3     
  20 S20           -3.1111     5.7223     4.4876 S.o2    
  21 O21           -2.5922     7.0304     4.2906 O.2     
  22 O22           -4.4849     5.4609     4.7394 O.2     
  23 C23           -3.2563     1.2966     1.9729 C.3     
  24 C24           -4.1778     3.9133     1.4133 C.3     
  25 C25           -2.2171     5.0308     5.8394 C.ar    
  26 C26           -0.9580     5.5125     6.1547 C.ar    
  27 C27           -0.2548     4.9704     7.2160 C.ar    
  28 C28           -0.8122     3.9442     7.9645 C.ar    
  29 C29           -2.0740     3.4628     7.6478 C.ar    
  30 C30           -2.7769     4.0101     6.5889 C.ar    
  31 O31           -0.1226     3.4105     9.0068 O.3     
  32 C32           -0.7579     2.3568     9.7335 C.3     
  33 F33           -4.0078     3.5447     6.2831 F       
  34 F34           -0.4153     6.5121     5.4255 F       
  35 H35           -1.6374    -0.6574     1.2718 H       
  36 H36            2.2308    -2.2814     2.1001 H       
  37 H37            3.2600    -0.1358     1.4730 H       
  38 H38            1.8468     1.7443     0.7477 H       
  39 H39           -1.1604    -3.1274     1.6287 H       
  40 H40           -0.1472    -5.6819     2.9112 H       
  41 H41           -0.2679    -5.0213     4.5596 H       
  42 H42           -1.5747    -4.7308     3.3865 H       
  43 H43           -0.1198     3.8904     3.1235 H       
  44 H44            0.1279     4.2785     1.4010 H       
  45 H45           -2.1714     2.1821     3.6145 H       
  46 H46           -4.2320     3.4525     3.5206 H       
  47 H47           -1.0566     6.0904     2.7623 H       
  48 H48           -1.9387     5.5448     1.3120 H       
  49 H49           -2.5348     0.5228     1.7111 H       
  50 H50           -3.9884     0.8898     2.6705 H       
  51 H51           -3.7646     1.6395     1.0717 H       
  52 H52           -4.7406     3.0257     1.1243 H       
  53 H53           -4.8576     4.7601     1.5071 H       
  54 H54           -3.4281     4.1317     0.6527 H       
  55 H55            0.7276     5.3458     7.4613 H       
  56 H56           -2.5090     2.6636     8.2296 H       
  57 H57           -1.6940     2.7205    10.1572 H       
  58 H58           -0.9629     1.5239     9.0609 H       
  59 H59           -0.1013     2.0221    10.5366 H       
@<TRIPOS>BOND
   1    1    2 ar
   2    1    6 ar
   3    1   11 1
   4    2    3 ar
   5    2   35 1
   6    3    4 ar
   7    3    7 1
   8    4    5 ar
   9    4   36 1
  10    5    6 ar
  11    5   37 1
  12    6   38 1
  13    7    8 am
  14    7   39 1
  15    8    9 2
  16    8   10 1
  17   10   40 1
  18   10   41 1
  19   10   42 1
  20   11   12 2
  21   11   13 2
  22   11   14 am
  23   14   15 1
  24   14   16 1
  25   15   19 1
  26   15   43 1
  27   15   44 1
  28   16   17 1
  29   16   23 1
  30   16   45 1
  31   17   18 1
  32   17   24 1
  33   17   46 1
  34   18   19 1
  35   18   20 am
  36   19   47 1
  37   19   48 1
  38   20   21 2
  39   20   22 2
  40   20   25 1
  41   23   49 1
  42   23   50 1
  43   23   51 1
  44   24   52 1
  45   24   53 1
  46   24   54 1
  47   25   26 ar
  48   25   30 ar
  49   26   27 ar
  50   26   34 1
  51   27   28 ar
  52   27   55 1
  53   28   29 ar
  54   28   31 1
  55   29   30 ar
  56   29   56 1
  57   30   33 1
  58   31   32 1
  59   32   57 1
  60   32   58 1
  61   32   59 1

#	End of record

