#	Name: ASD03910091
#	Creating user name:	WinNT
#	Creation time:	15. 06. 2019 20:47

#	Modifying user name:	WinNT
#	Modification time:	15. 06. 2019 20:47

#	Program:	/corina/corina34_cracker 3.40 0067  02.08.2006

@<TRIPOS>MOLECULE
ASD03910091
  41   42    0    0    0
SMALL
NO_CHARGES


@<TRIPOS>ATOM
   1 C1            -1.1302    -0.3461     1.2715 C.2     
   2 C2             0.0833     0.3057     0.6603 C.3     
   3 C3             0.3122    -0.2577    -0.7436 C.3     
   4 O4            -1.0257    -0.9749     2.2979 O.2     
   5 O5            -2.3281    -0.2234     0.6786 O.3     
   6 C6            -0.1388     1.8170     0.5734 C.3     
   7 O7             1.2278     0.0385     1.4732 O.3     
   8 C8             1.5678    -1.2660     1.6509 C.ar    
   9 C9             2.7325    -1.5927     2.3299 C.ar    
  10 C10            3.0786    -2.9173     2.5103 C.ar    
  11 C11            2.2603    -3.9223     2.0123 C.ar    
  12 C12            1.0944    -3.5947     1.3333 C.ar    
  13 C13            0.7469    -2.2697     1.1581 C.ar    
  14 N14            2.6111    -5.2668     2.1947 N.am    
  15 C15            3.9089    -5.6305     2.1947 C.2     
  16 N16            4.2514    -6.9054     2.4665 N.am    
  17 O17            4.7707    -4.8085     1.9495 O.2     
  18 C18            5.6010    -7.2609     2.5678 C.ar    
  19 C19            6.0010    -8.2163     3.4926 C.ar    
  20 C20            7.3348    -8.5660     3.5904 C.ar    
  21 C21            8.2711    -7.9645     2.7679 C.ar    
  22 C22            7.8751    -7.0121     1.8454 C.ar    
  23 C23            6.5417    -6.6630     1.7397 C.ar    
  24 Cl24           9.0528    -6.2600     0.8154 Cl      
  25 Cl25           7.8357    -9.7604     4.7463 Cl      
  26 H26           -0.6085    -0.1782    -1.3216 H       
  27 H27            1.1016     0.3084    -1.2381 H       
  28 H28            0.6066    -1.3047    -0.6715 H       
  29 H29           -3.0771    -0.6590     1.1079 H       
  30 H30           -0.3880     2.2050     1.5611 H       
  31 H31            0.7706     2.2978     0.2130 H       
  32 H32           -0.9574     2.0249    -0.1157 H       
  33 H33            3.3690    -0.8108     2.7172 H       
  34 H34            3.9858    -3.1715     3.0383 H       
  35 H35            0.4576    -4.3760     0.9454 H       
  36 H36           -0.1622    -2.0148     0.6337 H       
  37 H37            1.9199    -5.9355     2.3209 H       
  38 H38            3.5623    -7.5765     2.5919 H       
  39 H39            5.2707    -8.6854     4.1352 H       
  40 H40            9.3128    -8.2387     2.8463 H       
  41 H41            6.2325    -5.9229     1.0165 H       
@<TRIPOS>BOND
   1    1    2 1
   2    1    4 2
   3    1    5 1
   4    2    3 1
   5    2    6 1
   6    2    7 1
   7    3   26 1
   8    3   27 1
   9    3   28 1
  10    5   29 1
  11    6   30 1
  12    6   31 1
  13    6   32 1
  14    7    8 1
  15    8    9 ar
  16    8   13 ar
  17    9   10 ar
  18    9   33 1
  19   10   11 ar
  20   10   34 1
  21   11   12 ar
  22   11   14 1
  23   12   13 ar
  24   12   35 1
  25   13   36 1
  26   14   15 am
  27   14   37 1
  28   15   16 am
  29   15   17 2
  30   16   18 1
  31   16   38 1
  32   18   19 ar
  33   18   23 ar
  34   19   20 ar
  35   19   39 1
  36   20   21 ar
  37   20   25 1
  38   21   22 ar
  39   21   40 1
  40   22   23 ar
  41   22   24 1
  42   23   41 1

#	End of record

