#	Name: ASD01708004
#	Creating user name:	WinNT
#	Creation time:	15. 06. 2019 19:22

#	Modifying user name:	WinNT
#	Modification time:	15. 06. 2019 19:22

#	Program:	/corina/corina34_cracker 3.40 0067  02.08.2006

@<TRIPOS>MOLECULE
ASD01708004
  60   64    0    0    0
SMALL
NO_CHARGES


@<TRIPOS>ATOM
   1 C1             2.8557     2.5545     0.9270 C.2     
   2 O2             3.7583     1.5864     1.1565 O.3     
   3 C3             1.8077     2.0593     0.2510 C.2     
   4 C4             2.0915     0.6367     0.0403 C.ar    
   5 C5             3.3435     0.4109     0.6412 C.ar    
   6 C6             1.4083    -0.4099    -0.5834 C.ar    
   7 C7             1.9559    -1.6580    -0.6113 C.ar    
   8 C8             3.2024    -1.8960    -0.0165 C.ar    
   9 C9             3.8938    -0.8600     0.6085 C.ar    
  10 C10            3.7859    -3.2513    -0.0520 C.2     
  11 N11            5.1195    -3.4080    -0.1678 N.am    
  12 O12            3.0635    -4.2264     0.0231 O.2     
  13 C13            6.0061    -2.2611    -0.3908 C.3     
  14 C14            7.0169    -2.5998    -1.4584 C.ar    
  15 C15            7.1916    -3.8846    -1.9255 C.ar    
  16 C16            6.3803    -5.0524    -1.4284 C.3     
  17 C17            5.7461    -4.7368    -0.0693 C.3     
  18 C18            7.7862    -1.5615    -1.9700 C.ar    
  19 C19            8.7336    -1.7992    -2.9418 C.ar    
  20 C20            8.9229    -3.1003    -3.4161 C.ar    
  21 C21            8.1470    -4.1376    -2.9009 C.ar    
  22 Cl22           8.3761    -5.7567    -3.4836 Cl      
  23 Cl23           9.6852    -0.4917    -3.5732 Cl      
  24 C24            9.9372    -3.3741    -4.4542 C.2     
  25 N25            9.6006    -3.3128    -5.7578 N.am    
  26 C26           10.6067    -3.5843    -6.7876 C.3     
  27 O27           11.0755    -3.6547    -4.1328 O.2     
  28 C28            9.9129    -4.0614    -8.0651 C.3     
  29 N29            9.0647    -5.2158    -7.7583 N.am    
  30 C30            8.3522    -5.8077    -8.7372 C.2     
  31 C31           11.3817    -2.3248    -7.0772 C.2     
  32 O32           11.1205    -1.3049    -6.4843 O.2     
  33 O33           12.3622    -2.3359    -7.9939 O.3     
  34 C34            7.5035    -6.9627    -8.4302 C.2     
  35 O35            8.4133    -5.3831    -9.8762 O.2     
  36 C36            6.7371    -7.6454    -9.3323 C.2     
  37 C37            6.0390    -8.6892    -8.7729 C.2     
  38 C38            6.2258    -8.8574    -7.4586 C.2     
  39 S39            7.3145    -7.6965    -6.8436 S.3     
  40 H40            2.9568     3.5817     1.2447 H       
  41 H41            0.9309     2.6003    -0.0729 H       
  42 H42            0.4474    -0.2307    -1.0426 H       
  43 H43            1.4269    -2.4668    -1.0934 H       
  44 H44            4.8543    -1.0471     1.0655 H       
  45 H45            5.4151    -1.4027    -0.7102 H       
  46 H46            6.5253    -2.0184     0.5363 H       
  47 H47            5.5943    -5.2757    -2.1497 H       
  48 H48            7.0294    -5.9221    -1.3261 H       
  49 H49            6.5144    -4.7312     0.7039 H       
  50 H50            4.9892    -5.4846     0.1671 H       
  51 H51            7.6394    -0.5568    -1.6020 H       
  52 H52            8.6923    -3.0888    -6.0143 H       
  53 H53           11.2888    -4.3575    -6.4342 H       
  54 H54            9.2986    -3.2559    -8.4674 H       
  55 H55           10.6641    -4.3478    -8.8012 H       
  56 H56            9.0160    -5.5542    -6.8505 H       
  57 H57           12.8312    -1.5039    -8.1452 H       
  58 H58            6.6847    -7.3901   -10.3804 H       
  59 H59            5.3873    -9.3268    -9.3519 H       
  60 H60            5.7539    -9.6279    -6.8669 H       
@<TRIPOS>BOND
   1    1    2 1
   2    1    3 2
   3    1   40 1
   4    2    5 1
   5    3    4 1
   6    3   41 1
   7    4    5 ar
   8    4    6 ar
   9    5    9 ar
  10    6    7 ar
  11    6   42 1
  12    7    8 ar
  13    7   43 1
  14    8    9 ar
  15    8   10 1
  16    9   44 1
  17   10   11 am
  18   10   12 2
  19   11   13 1
  20   11   17 1
  21   13   14 1
  22   13   45 1
  23   13   46 1
  24   14   15 ar
  25   14   18 ar
  26   15   16 1
  27   15   21 ar
  28   16   17 1
  29   16   47 1
  30   16   48 1
  31   17   49 1
  32   17   50 1
  33   18   19 ar
  34   18   51 1
  35   19   20 ar
  36   19   23 1
  37   20   21 ar
  38   20   24 1
  39   21   22 1
  40   24   25 am
  41   24   27 2
  42   25   26 1
  43   25   52 1
  44   26   28 1
  45   26   31 1
  46   26   53 1
  47   28   29 1
  48   28   54 1
  49   28   55 1
  50   29   30 am
  51   29   56 1
  52   30   34 1
  53   30   35 2
  54   31   32 2
  55   31   33 1
  56   33   57 1
  57   34   36 2
  58   34   39 1
  59   36   37 1
  60   36   58 1
  61   37   38 2
  62   37   59 1
  63   38   39 1
  64   38   60 1

#	End of record

