#	Name: ASD00460043
#	Creating user name:	WinNT
#	Creation time:	15. 06. 2019 18:36

#	Modifying user name:	WinNT
#	Modification time:	15. 06. 2019 18:36

#	Program:	/corina/corina34_cracker 3.40 0067  02.08.2006

@<TRIPOS>MOLECULE
ASD00460043
  50   52    0    0    0
SMALL
NO_CHARGES


@<TRIPOS>ATOM
   1 C1            -0.0166     1.3763     0.0096 C.ar    
   2 C2             0.0021    -0.0041     0.0020 C.ar    
   3 C3            -1.2942    -0.7726     0.0098 C.3     
   4 N4            -1.7281    -1.0148    -1.3726 N.3     
   5 C5            -2.9917    -1.7635    -1.4043 C.3     
   6 C6            -3.7121    -1.4785    -2.6968 C.ar    
   7 C7            -5.0843    -1.3111    -2.7009 C.ar    
   8 C8            -5.7452    -1.0498    -3.8866 C.ar    
   9 C9            -5.0339    -0.9554    -5.0681 C.ar    
  10 C10           -3.6616    -1.1219    -5.0639 C.ar    
  11 C11           -3.0002    -1.3789    -3.8776 C.ar    
  12 C12           -2.6993    -3.2619    -1.3029 C.3     
  13 C13            1.2066    -0.6844    -0.0131 C.ar    
  14 C14            2.4007     0.0117    -0.0208 C.ar    
  15 C15            2.3966     1.3970    -0.0133 C.ar    
  16 C16            1.1806     2.0875     0.0020 C.ar    
  17 C17            1.1662     3.5707     0.0096 C.ar    
  18 C18            0.3755     4.2672    -0.9028 C.ar    
  19 C19            1.9386     4.2728     0.9327 C.ar    
  20 C20            1.9208     5.6531     0.9355 C.ar    
  21 C21            1.1381     6.3390     0.0248 C.ar    
  22 C22            0.3655     5.6470    -0.8908 C.ar    
  23 C23           -0.4848     6.4016    -1.8801 C.3     
  24 F24           -0.3265     7.7768    -1.6776 F       
  25 F25           -0.0889     6.0733    -3.1812 F       
  26 F26           -1.8282     6.0552    -1.7000 F       
  27 O27            3.5695     2.0823    -0.0204 O.3     
  28 C28            4.7719     1.3101    -0.0356 C.3     
  29 H29           -0.9589     1.9041     0.0169 H       
  30 H30           -1.1483    -1.7262     0.5172 H       
  31 H31           -2.0559    -0.1951     0.5337 H       
  32 H32           -1.8083    -0.1484    -1.8835 H       
  33 H33           -3.6163    -1.4576    -0.5650 H       
  34 H34           -5.6401    -1.3848    -1.7778 H       
  35 H35           -6.8173    -0.9197    -3.8899 H       
  36 H36           -5.5503    -0.7519    -5.9945 H       
  37 H37           -3.1059    -1.0485    -5.9870 H       
  38 H38           -1.9281    -1.5090    -3.8743 H       
  39 H39           -2.0747    -3.5677    -2.1422 H       
  40 H40           -2.1782    -3.4680    -0.3680 H       
  41 H41           -3.6369    -3.8173    -1.3264 H       
  42 H42            1.2139    -1.7644    -0.0186 H       
  43 H43            3.3379    -0.5250    -0.0323 H       
  44 H44           -0.2280     3.7280    -1.6180 H       
  45 H45            2.5496     3.7381     1.6448 H       
  46 H46            2.5191     6.1983     1.6505 H       
  47 H47            1.1267     7.4190     0.0310 H       
  48 H48            4.7918     0.6862    -0.9291 H       
  49 H49            5.6329     1.9785    -0.0399 H       
  50 H50            4.8081     0.6767     0.8507 H       
@<TRIPOS>BOND
   1    1    2 ar
   2    1   16 ar
   3    1   29 1
   4    2    3 1
   5    2   13 ar
   6    3    4 1
   7    3   30 1
   8    3   31 1
   9    4    5 1
  10    4   32 1
  11    5    6 1
  12    5   12 1
  13    5   33 1
  14    6    7 ar
  15    6   11 ar
  16    7    8 ar
  17    7   34 1
  18    8    9 ar
  19    8   35 1
  20    9   10 ar
  21    9   36 1
  22   10   11 ar
  23   10   37 1
  24   11   38 1
  25   12   39 1
  26   12   40 1
  27   12   41 1
  28   13   14 ar
  29   13   42 1
  30   14   15 ar
  31   14   43 1
  32   15   27 1
  33   15   16 ar
  34   16   17 1
  35   17   18 ar
  36   17   19 ar
  37   18   22 ar
  38   18   44 1
  39   19   20 ar
  40   19   45 1
  41   20   21 ar
  42   20   46 1
  43   21   22 ar
  44   21   47 1
  45   22   23 1
  46   23   24 1
  47   23   25 1
  48   23   26 1
  49   27   28 1
  50   28   48 1
  51   28   49 1
  52   28   50 1

#	End of record

