#	Name: ASD02500661
#	Creating user name:	WinNT
#	Creation time:	15. 06. 2019 20:23

#	Modifying user name:	WinNT
#	Modification time:	15. 06. 2019 20:23

#	Program:	/corina/corina34_cracker 3.40 0067  02.08.2006

@<TRIPOS>MOLECULE
ASD02500661
  65   69    0    0    0
SMALL
NO_CHARGES


@<TRIPOS>ATOM
   1 N1            -4.3802     5.0883     0.0606 N.ar    
   2 C2            -5.5846     5.6038     0.0151 C.ar    
   3 C3            -6.5291     5.3490     1.0073 C.ar    
   4 C4            -6.2090     4.5428     2.0622 C.ar    
   5 C5            -4.9148     3.9907     2.1075 C.ar    
   6 C6            -4.5135     3.1535     3.1606 C.ar    
   7 C7            -3.2526     2.6394     3.1684 C.ar    
   8 C8            -2.3544     2.9334     2.1448 C.ar    
   9 C9            -2.7101     3.7413     1.1088 C.ar    
  10 C10           -4.0029     4.2913     1.0653 C.ar    
  11 S11           -1.5540     4.0973    -0.1723 S.o2    
  12 O12           -1.5464     5.5101    -0.3247 O.2     
  13 O13           -0.3869     3.3407     0.1187 O.2     
  14 N14           -2.1739     3.4787    -1.5778 N.am    
  15 C15           -2.3076     2.1034    -1.7326 C.ar    
  16 C16           -2.0863     1.5196    -2.9772 C.ar    
  17 C17           -2.2178     0.1589    -3.1336 C.ar    
  18 C18           -2.5741    -0.6376    -2.0412 C.ar    
  19 C19           -2.7955    -0.0486    -0.7931 C.ar    
  20 C20           -2.6568     1.3124    -0.6418 C.ar    
  21 C21           -2.7164    -2.0967    -2.2056 C.2     
  22 O22           -3.2586    -2.5469    -3.1965 O.2     
  23 N23           -2.2455    -2.9308    -1.2574 N.am    
  24 C24           -2.2732    -4.3883    -1.4527 C.3     
  25 C25           -0.8732    -4.9439    -1.1705 C.3     
  26 N26           -0.4344    -4.5038     0.1606 N.3     
  27 C27           -0.3133    -3.0412     0.2252 C.3     
  28 C28           -1.6847    -2.4074    -0.0024 C.3     
  29 C29            0.8270    -5.1537     0.5406 C.3     
  30 O30            1.1360    -5.0965     4.1651 O.3     
  31 C31            0.3628    -4.7832     3.0008 C.3     
  32 C32            1.3486    -4.5349     1.8390 C.3     
  33 C33            2.6261    -5.2706     2.3277 C.3     
  34 C34            2.5373    -5.0305     3.8559 C.3     
  35 C35           -1.7029     2.3790    -4.1542 C.3     
  36 H36           -5.8518     6.2432    -0.8132 H       
  37 H37           -7.5133     5.7889     0.9423 H       
  38 H38           -6.9287     4.3350     2.8403 H       
  39 H39           -5.2007     2.9189     3.9600 H       
  40 H40           -2.9447     1.9954     3.9789 H       
  41 H41           -1.3596     2.5139     2.1741 H       
  42 H42           -2.4437     4.0758    -2.2930 H       
  43 H43           -2.0464    -0.2933    -4.0993 H       
  44 H44           -3.0708    -0.6612     0.0526 H       
  45 H45           -2.8231     1.7675     0.3234 H       
  46 H46           -2.9904    -4.8363    -0.7650 H       
  47 H47           -2.5566    -4.6147    -2.4806 H       
  48 H48           -0.9009    -6.0331    -1.2026 H       
  49 H49           -0.1768    -4.5750    -1.9235 H       
  50 H50            0.0650    -2.7505     1.2052 H       
  51 H51            0.3752    -2.6988    -0.5473 H       
  52 H52           -1.5793    -1.3247    -0.0719 H       
  53 H53           -2.3443    -2.6614     0.8273 H       
  54 H54            0.6560    -6.2199     0.6893 H       
  55 H55            1.5624    -5.0107    -0.2512 H       
  56 H56           -0.2933    -5.6187     2.7569 H       
  57 H57           -0.2300    -3.8864     3.1808 H       
  58 H58            1.5363    -3.4689     1.7106 H       
  59 H59            2.5805    -6.3343     2.0939 H       
  60 H60            3.5248    -4.8167     1.9103 H       
  61 H61            2.9345    -4.0473     4.1081 H       
  62 H62            3.0803    -5.8080     4.3933 H       
  63 H63           -0.6173     2.4636    -4.2040 H       
  64 H64           -2.0743     1.9241    -5.0725 H       
  65 H65           -2.1397     3.3708    -4.0376 H       
@<TRIPOS>BOND
   1    1    2 ar
   2    1   10 ar
   3    2    3 ar
   4    2   36 1
   5    3    4 ar
   6    3   37 1
   7    4    5 ar
   8    4   38 1
   9    5    6 ar
  10    5   10 ar
  11    6    7 ar
  12    6   39 1
  13    7    8 ar
  14    7   40 1
  15    8    9 ar
  16    8   41 1
  17    9   10 ar
  18    9   11 1
  19   11   12 2
  20   11   13 2
  21   11   14 am
  22   14   15 1
  23   14   42 1
  24   15   16 ar
  25   15   20 ar
  26   16   17 ar
  27   16   35 1
  28   17   18 ar
  29   17   43 1
  30   18   19 ar
  31   18   21 1
  32   19   20 ar
  33   19   44 1
  34   20   45 1
  35   21   22 2
  36   21   23 am
  37   23   24 1
  38   23   28 1
  39   24   25 1
  40   24   46 1
  41   24   47 1
  42   25   26 1
  43   25   48 1
  44   25   49 1
  45   26   27 1
  46   26   29 1
  47   27   28 1
  48   27   50 1
  49   27   51 1
  50   28   52 1
  51   28   53 1
  52   29   32 1
  53   29   54 1
  54   29   55 1
  55   30   31 1
  56   30   34 1
  57   31   32 1
  58   31   56 1
  59   31   57 1
  60   32   33 1
  61   32   58 1
  62   33   34 1
  63   33   59 1
  64   33   60 1
  65   34   61 1
  66   34   62 1
  67   35   63 1
  68   35   64 1
  69   35   65 1

#	End of record

