#	Name: ASD01910708
#	Creating user name:	WinNT
#	Creation time:	15. 06. 2019 19:56

#	Modifying user name:	WinNT
#	Modification time:	15. 06. 2019 19:56

#	Program:	/corina/corina34_cracker 3.40 0067  02.08.2006

@<TRIPOS>MOLECULE
ASD01910708
  52   55    0    0    0
SMALL
NO_CHARGES


@<TRIPOS>ATOM
   1 C1            12.4929    -1.8925     4.2627 C.ar    
   2 C2            13.1109    -2.0556     3.0302 C.ar    
   3 C3            12.3988    -1.7380     1.8874 C.ar    
   4 C4            11.0953    -1.2687     2.0112 C.ar    
   5 N5            10.5408    -1.1264     3.2053 N.ar    
   6 C6            11.1958    -1.4218     4.3119 C.ar    
   7 N7            10.3683    -0.9458     0.8712 N.3     
   8 C8             9.0225    -0.4726     1.2216 C.3     
   9 C9             8.3209     0.0418    -0.0399 C.3     
  10 N10            8.3620    -1.0157    -1.0614 N.am    
  11 C11            9.6596    -1.6361    -1.3689 C.3     
  12 C12           10.3084    -2.0844    -0.0550 C.3     
  13 C13            7.2404    -1.4055    -1.6989 C.2     
  14 C14            7.3212    -2.3800    -2.8082 C.ar    
  15 O15            6.1624    -0.9561    -1.3622 O.2     
  16 C16            6.3483    -3.3735    -2.9390 C.ar    
  17 C17            6.4215    -4.2849    -3.9742 C.ar    
  18 C18            7.4549    -4.2212    -4.8868 C.ar    
  19 C19            8.4358    -3.2316    -4.7685 C.ar    
  20 C20            8.3647    -2.3054    -3.7281 C.ar    
  21 C21            9.5080    -3.1666    -5.7156 C.1     
  22 C22           10.3869    -3.1132    -6.4920 C.1     
  23 C23           11.4591    -3.0482    -7.4391 C.ar    
  24 C24            7.5266    -5.2204    -6.0127 C.3     
  25 C25           12.4396    -2.0599    -7.3218 C.ar    
  26 C26           13.4714    -2.0024    -8.2388 C.ar    
  27 C27           13.5348    -2.9219    -9.2733 C.ar    
  28 C28           12.5654    -3.9044    -9.3950 C.ar    
  29 C29           11.5320    -3.9763    -8.4808 C.ar    
  30 F30           12.6338    -4.7972   -10.4067 F       
  31 F31           14.4203    -1.0473    -8.1267 F       
  32 H32           13.0198    -2.1356     5.1736 H       
  33 H33           14.1248    -2.4218     2.9651 H       
  34 H34           12.8491    -1.8525     0.9125 H       
  35 H35           10.7114    -1.2931     5.2685 H       
  36 H36            8.4475    -1.2945     1.6481 H       
  37 H37            9.0990     0.3347     1.9500 H       
  38 H38            7.2844     0.2871     0.1917 H       
  39 H39            8.8361     0.9283    -0.4097 H       
  40 H40            9.5081    -2.5001    -2.0159 H       
  41 H41           10.3034    -0.9109    -1.8665 H       
  42 H42           11.3175    -2.4460    -0.2525 H       
  43 H43            9.7155    -2.8839     0.3892 H       
  44 H44            5.5368    -3.4295    -2.2286 H       
  45 H45            5.6666    -5.0514    -4.0698 H       
  46 H46            9.1193    -1.5389    -3.6316 H       
  47 H47            6.9831    -4.8352    -6.8754 H       
  48 H48            8.5688    -5.3871    -6.2847 H       
  49 H49            7.0797    -6.1615    -5.6923 H       
  50 H50           12.3908    -1.3422    -6.5163 H       
  51 H51           14.3430    -2.8724    -9.9880 H       
  52 H52           10.7772    -4.7428    -8.5765 H       
@<TRIPOS>BOND
   1    1    2 ar
   2    1    6 ar
   3    1   32 1
   4    2    3 ar
   5    2   33 1
   6    3    4 ar
   7    3   34 1
   8    4    5 ar
   9    4    7 1
  10    5    6 ar
  11    6   35 1
  12    7    8 1
  13    7   12 1
  14    8    9 1
  15    8   36 1
  16    8   37 1
  17    9   10 1
  18    9   38 1
  19    9   39 1
  20   10   11 1
  21   10   13 am
  22   11   12 1
  23   11   40 1
  24   11   41 1
  25   12   42 1
  26   12   43 1
  27   13   14 1
  28   13   15 2
  29   14   16 ar
  30   14   20 ar
  31   16   17 ar
  32   16   44 1
  33   17   18 ar
  34   17   45 1
  35   18   19 ar
  36   18   24 1
  37   19   20 ar
  38   19   21 1
  39   20   46 1
  40   21   22 3
  41   22   23 1
  42   23   25 ar
  43   23   29 ar
  44   24   47 1
  45   24   48 1
  46   24   49 1
  47   25   26 ar
  48   25   50 1
  49   26   27 ar
  50   26   31 1
  51   27   28 ar
  52   27   51 1
  53   28   29 ar
  54   28   30 1
  55   29   52 1

#	End of record

