#	Name: ASD03930188
#	Creating user name:	WinNT
#	Creation time:	15. 06. 2019 20:47

#	Modifying user name:	WinNT
#	Modification time:	15. 06. 2019 20:47

#	Program:	/corina/corina34_cracker 3.40 0067  02.08.2006

@<TRIPOS>MOLECULE
ASD03930188
  39   42    0    0    0
SMALL
NO_CHARGES


@<TRIPOS>ATOM
   1 S1            -0.0756     4.0332    -0.9996 S.o2    
   2 N2            -0.7568     2.5503    -1.3382 N.am    
   3 C3            -0.4952     1.9213    -2.6290 C.3     
   4 C4             0.9726     1.5818    -2.8391 C.3     
   5 O5             1.7789     2.7654    -2.8763 O.3     
   6 C6             2.3638     3.1174    -1.7033 C.ar    
   7 C7             1.6341     3.6843    -0.6674 C.ar    
   8 C8             3.7230     2.8922    -1.5140 C.ar    
   9 C9             4.3091     3.1908    -0.3001 C.ar    
  10 C10            3.5559     3.7161     0.7395 C.ar    
  11 C11            2.2009     3.9688     0.5469 C.ar    
  12 O12            4.1377     3.9825     1.9392 O.3     
  13 C13            3.3386     4.3938     2.9584 C.ar    
  14 C14            2.7480     3.4609     3.7949 C.ar    
  15 C15            1.9291     3.8875     4.8398 C.ar    
  16 C16            1.7098     5.2521     5.0359 C.ar    
  17 C17            2.3028     6.1731     4.1970 C.ar    
  18 C18            3.1189     5.7492     3.1644 C.ar    
  19 S19            0.2390     3.2778     7.0951 S.3     
  20 C20            1.2947     2.8977     5.7368 C.2     
  21 N21            1.4263     1.6051     5.6493 N.2     
  22 C22            0.7860     0.8785     6.5360 C.2     
  23 C23            0.0656     1.5571     7.4353 C.2     
  24 O24           -0.1136     4.7863    -2.2040 O.2     
  25 O25           -0.6481     4.4779     0.2226 O.2     
  26 H26           -1.3212     2.1096    -0.6838 H       
  27 H27           -1.0806     1.0043    -2.6975 H       
  28 H28           -0.8153     2.5988    -3.4206 H       
  29 H29            1.3120     0.9440    -2.0229 H       
  30 H30            1.0837     1.0443    -3.7808 H       
  31 H31            4.3197     2.4837    -2.3161 H       
  32 H32            5.3649     3.0132    -0.1584 H       
  33 H33            1.6035     4.3843     1.3449 H       
  34 H34            2.9210     2.4065     3.6381 H       
  35 H35            1.0760     5.5867     5.8438 H       
  36 H36            2.1324     7.2285     4.3498 H       
  37 H37            3.5838     6.4747     2.5133 H       
  38 H38            0.8377    -0.2003     6.5386 H       
  39 H39           -0.5209     1.1253     8.2328 H       
@<TRIPOS>BOND
   1    1    2 am
   2    1    7 1
   3    1   24 2
   4    1   25 2
   5    2    3 1
   6    2   26 1
   7    3    4 1
   8    3   27 1
   9    3   28 1
  10    4    5 1
  11    4   29 1
  12    4   30 1
  13    5    6 1
  14    6    7 ar
  15    6    8 ar
  16    7   11 ar
  17    8    9 ar
  18    8   31 1
  19    9   10 ar
  20    9   32 1
  21   10   11 ar
  22   10   12 1
  23   11   33 1
  24   12   13 1
  25   13   14 ar
  26   13   18 ar
  27   14   15 ar
  28   14   34 1
  29   15   16 ar
  30   15   20 1
  31   16   17 ar
  32   16   35 1
  33   17   18 ar
  34   17   36 1
  35   18   37 1
  36   19   20 1
  37   19   23 1
  38   20   21 2
  39   21   22 1
  40   22   23 2
  41   22   38 1
  42   23   39 1

#	End of record

