#	Name: ASD01209201
#	Creating user name:	WinNT
#	Creation time:	15. 06. 2019 19:11

#	Modifying user name:	WinNT
#	Modification time:	15. 06. 2019 19:11

#	Program:	/corina/corina34_cracker 3.40 0067  02.08.2006

@<TRIPOS>MOLECULE
ASD01209201
  73   75    0    0    0
SMALL
NO_CHARGES


@<TRIPOS>ATOM
   1 O1            -1.7187     3.5617     4.3348 O.3     
   2 O2             0.7586     4.0758     5.0497 O.3     
   3 C3             7.3650     9.6511     4.7617 C.ar    
   4 C4             8.4984     9.8773     3.9947 C.ar    
   5 C5             8.5491     9.4406     2.6787 C.ar    
   6 C6             7.4675     8.7758     2.1255 C.ar    
   7 C7             6.3251     8.5461     2.8935 C.ar    
   8 C8             6.2805     8.9823     4.2180 C.ar    
   9 O9             9.6617     9.6657     1.9314 O.3     
  10 C10            5.1677     7.8378     2.3070 C.2     
  11 N11            4.0655     7.6170     3.0504 N.am    
  12 O12            5.2102     7.4545     1.1542 O.2     
  13 C13            2.9780     6.9514     2.4993 C.2     
  14 P14           -0.2670     4.0192     3.8099 P.3     
  15 O15            0.2239     3.0475     2.8074 O.2     
  16 C16           -0.3894     5.6703     3.0467 C.3     
  17 N17            1.8733     6.6886     3.1250 N.2     
  18 S18            2.8985     6.3661     0.8949 S.3     
  19 C19            1.2726     5.7542     1.1876 C.2     
  20 C20            0.9409     6.0462     2.4467 C.2     
  21 C21           -1.9744     2.2694     4.8884 C.3     
  22 C22           -3.4488     2.1665     5.2838 C.3     
  23 C23            1.1494     2.9176     5.7899 C.3     
  24 C24            2.1284     3.3239     6.8933 C.3     
  25 O25            7.3204    10.0813     6.0501 O.3     
  26 C26            6.1343     9.7885     6.7912 C.3     
  27 C27            6.4537     9.7931     8.2875 C.3     
  28 C28            5.0720    10.8485     6.4933 C.3     
  29 C29           10.7855    10.2433     2.5987 C.3     
  30 C30           12.0661     9.8930     1.8374 C.3     
  31 C31           13.2717    10.4845     2.5745 C.3     
  32 N32           13.0536    11.9259     2.7573 N.am    
  33 C33           11.8104    12.3767     3.3976 C.3     
  34 C34           10.6211    11.7640     2.6512 C.3     
  35 C35           13.9766    12.8177     2.3459 C.2     
  36 C36           15.2060    12.3459     1.6130 C.3     
  37 O37           13.8178    13.9998     2.5655 O.2     
  38 H38            9.3438    10.3952     4.4231 H       
  39 H39            7.5076     8.4365     1.1010 H       
  40 H40            5.3984     8.8065     4.8158 H       
  41 H41            4.0316     7.9228     3.9703 H       
  42 H42           -1.1489     5.6538     2.2650 H       
  43 H43           -0.6653     6.4020     3.8060 H       
  44 H44            0.6513     5.2364     0.4718 H       
  45 H45           -1.7427     1.5043     4.1474 H       
  46 H46           -1.3507     2.1220     5.7701 H       
  47 H47           -4.0725     2.3139     4.4021 H       
  48 H48           -3.6438     1.1808     5.7061 H       
  49 H49           -3.6805     2.9316     6.0248 H       
  50 H50            0.2681     2.4579     6.2373 H       
  51 H51            1.6313     2.2045     5.1211 H       
  52 H52            2.4264     2.4405     7.4579 H       
  53 H53            3.0096     3.7836     6.4459 H       
  54 H54            1.6464     4.0371     7.5621 H       
  55 H55            5.7588     8.8066     6.5029 H       
  56 H56            6.8292    10.7749     8.5759 H       
  57 H57            5.5489     9.5697     8.8529 H       
  58 H58            7.2105     9.0379     8.4998 H       
  59 H59            5.4475    11.8303     6.7816 H       
  60 H60            4.8444    10.8452     5.4273 H       
  61 H61            4.1672    10.6251     7.0586 H       
  62 H62           10.8471     9.8497     3.6133 H       
  63 H63           12.1704     8.8095     1.7802 H       
  64 H64           12.0158    10.3078     0.8307 H       
  65 H65           13.3766    10.0045     3.5475 H       
  66 H66           14.1749    10.3233     1.9860 H       
  67 H67           11.7961    12.0510     4.4377 H       
  68 H68           11.7494    13.4640     3.3521 H       
  69 H69           10.5844    12.1611     1.6368 H       
  70 H70            9.6970    12.0122     3.1732 H       
  71 H71           15.2226    11.2562     1.5952 H       
  72 H72           15.1882    12.7258     0.5915 H       
  73 H73           16.0964    12.7146     2.1223 H       
@<TRIPOS>BOND
   1    1   21 1
   2    1   14 1
   3    2   23 1
   4    2   14 1
   5    3    4 ar
   6    3   25 1
   7    3    8 ar
   8    4    5 ar
   9    4   38 1
  10    5    6 ar
  11    5    9 1
  12    6    7 ar
  13    6   39 1
  14    7    8 ar
  15    7   10 1
  16    8   40 1
  17    9   29 1
  18   10   11 am
  19   10   12 2
  20   11   13 1
  21   11   41 1
  22   13   17 2
  23   13   18 1
  24   14   15 2
  25   14   16 1
  26   16   20 1
  27   16   42 1
  28   16   43 1
  29   17   20 1
  30   18   19 1
  31   19   20 2
  32   19   44 1
  33   21   22 1
  34   21   45 1
  35   21   46 1
  36   22   47 1
  37   22   48 1
  38   22   49 1
  39   23   24 1
  40   23   50 1
  41   23   51 1
  42   24   52 1
  43   24   53 1
  44   24   54 1
  45   25   26 1
  46   26   27 1
  47   26   28 1
  48   26   55 1
  49   27   56 1
  50   27   57 1
  51   27   58 1
  52   28   59 1
  53   28   60 1
  54   28   61 1
  55   29   30 1
  56   29   34 1
  57   29   62 1
  58   30   31 1
  59   30   63 1
  60   30   64 1
  61   31   32 1
  62   31   65 1
  63   31   66 1
  64   32   33 1
  65   32   35 am
  66   33   34 1
  67   33   67 1
  68   33   68 1
  69   34   69 1
  70   34   70 1
  71   35   36 1
  72   35   37 2
  73   36   71 1
  74   36   72 1
  75   36   73 1

#	End of record

