#	Name: ASD03081120
#	Creating user name:	WinNT
#	Creation time:	15. 06. 2019 20:27

#	Modifying user name:	WinNT
#	Modification time:	15. 06. 2019 20:27

#	Program:	/corina/corina34_cracker 3.40 0067  02.08.2006

@<TRIPOS>MOLECULE
ASD03081120
  24   26    0    0    0
SMALL
NO_CHARGES


@<TRIPOS>ATOM
   1 O1            -0.0144     1.2086     0.0087 O.3     
   2 N2             0.0021    -0.0041     0.0020 N.2     
   3 C3             1.2351    -0.4415    -0.0121 C.2     
   4 N4             2.0451     0.6377    -0.0140 N.2     
   5 C5             1.2407     1.6828    -0.0008 C.2     
   6 C6             3.0169    -2.1937    -0.0376 C.ar    
   7 C7             1.6638    -1.8627    -0.0234 C.ar    
   8 C8             0.7168    -2.8898    -0.0194 C.ar    
   9 C9             1.1677    -4.1989    -0.0299 C.ar    
  10 C10            2.5281    -4.4454    -0.0438 C.ar    
  11 N11            3.3987    -3.4543    -0.0472 N.ar    
  12 C12            2.9941     3.4752    -0.0088 C.ar    
  13 C13            1.6451     3.1063     0.0026 C.ar    
  14 C14            0.6896     4.1314     0.0168 C.ar    
  15 C15            1.1448     5.4388     0.0186 C.ar    
  16 N16            2.4409     5.6857     0.0072 N.ar    
  17 N17            3.3208     4.7524    -0.0058 N.ar    
  18 H18            3.7596    -1.4096    -0.0453 H       
  19 H19           -0.3402    -2.6683    -0.0082 H       
  20 H20            0.4644    -5.0185    -0.0269 H       
  21 H21            2.8836    -5.4652    -0.0517 H       
  22 H22            3.7640     2.7179    -0.0154 H       
  23 H23           -0.3672     3.9087     0.0257 H       
  24 H24            0.4392     6.2564     0.0290 H       
@<TRIPOS>BOND
   1    1    2 1
   2    1    5 1
   3    2    3 2
   4    3    4 1
   5    3    7 1
   6    4    5 2
   7    5   13 1
   8    6    7 ar
   9    6   11 ar
  10    6   18 1
  11    7    8 ar
  12    8    9 ar
  13    8   19 1
  14    9   10 ar
  15    9   20 1
  16   10   11 ar
  17   10   21 1
  18   12   13 ar
  19   12   17 ar
  20   12   22 1
  21   13   14 ar
  22   14   15 ar
  23   14   23 1
  24   15   16 ar
  25   15   24 1
  26   16   17 ar

#	End of record

