#	Name: ASD00843538
#	Creating user name:	WinNT
#	Creation time:	15. 06. 2019 18:47

#	Modifying user name:	WinNT
#	Modification time:	15. 06. 2019 18:47

#	Program:	/corina/corina34_cracker 3.40 0067  02.08.2006

@<TRIPOS>MOLECULE
ASD00843538
  98  103    0    0    0
SMALL
NO_CHARGES


@<TRIPOS>ATOM
   1 F1             5.5634    -2.4348    -2.0439 F       
   2 N2             0.7676     1.0304    -0.2478 N.ar    
   3 C3             0.9572    -0.2495    -0.5217 C.ar    
   4 C4             0.8517    -1.2100     0.4763 C.ar    
   5 C5             0.5447    -0.8109     1.7652 C.ar    
   6 C6             0.3531     0.5419     2.0115 C.ar    
   7 C7             0.4737     1.4414     0.9713 C.ar    
   8 C8             1.0682    -2.6674     0.1595 C.3     
   9 C9             0.7613    -3.5242     1.3690 C.2     
  10 C10            0.2035    -3.0900    -1.0299 C.3     
  11 C11           -1.2383    -2.7550    -0.7469 C.2     
  12 N12           -2.2006    -3.1360    -1.6102 N.am    
  13 O13           -1.5327    -2.1426     0.2577 O.2     
  14 C14           -3.5954    -2.7211    -1.4072 C.3     
  15 C15           -4.4863    -3.9673    -1.4130 C.3     
  16 C16           -4.2463    -4.7551    -2.7029 C.3     
  17 C17           -2.7850    -5.2058    -2.7629 C.3     
  18 C18           -1.8738    -3.9690    -2.7756 C.3     
  19 N19           -5.1232    -5.9334    -2.7270 N.3     
  20 C20           -5.0066    -6.6506    -4.0044 C.3     
  21 C21           -5.8728    -7.9116    -3.9593 C.3     
  22 N22           -7.2686    -7.5348    -3.6957 N.3     
  23 C23           -7.3852    -6.8176    -2.4183 C.3     
  24 C24           -6.5190    -5.5566    -2.4634 C.3     
  25 C25           -8.1455    -8.7131    -3.7198 C.3     
  26 O26           -0.3075    -3.6137     1.9353 O.2     
  27 N27            1.8942    -4.1672     1.6974 N.am    
  28 C28            2.5291    -2.9367    -0.1221 C.ar    
  29 C29            2.9515    -3.8454     0.8429 C.ar    
  30 C30            3.3961    -2.4656    -1.0832 C.ar    
  31 C31            4.7117    -2.8949    -1.1016 C.ar    
  32 C32            5.1541    -3.8083    -0.1392 C.ar    
  33 C33            4.2711    -4.2816     0.8309 C.ar    
  34 C34            1.6339    -6.8265     2.3567 C.ar    
  35 C35            0.3551    -7.1011     1.8935 C.ar    
  36 C36            2.6046    -7.8099     2.3332 C.ar    
  37 C37            2.3047    -9.0683     1.8482 C.ar    
  38 C38            1.0270    -9.3479     1.3837 C.ar    
  39 C39            0.0515    -8.3634     1.4067 C.ar    
  40 O40            0.7325   -10.5861     0.9072 O.3     
  41 O41           -0.5991    -6.1338     1.9173 O.3     
  42 C42           -1.8932    -6.4869     1.4248 C.3     
  43 C43            1.7862   -11.5513     0.9138 C.3     
  44 C44           -9.5638    -8.3016    -3.3198 C.3     
  45 C45           -8.1651    -9.3054    -5.1304 C.3     
  46 C46            6.5136    -4.2581    -0.1505 C.1     
  47 N47            7.5921    -4.6149    -0.1595 N.1     
  48 S48            2.0224    -5.2206     2.9688 S.o2    
  49 O49            3.3968    -5.2499     3.3285 O.2     
  50 O50            0.9877    -4.8773     3.8802 O.2     
  51 O51            1.2573    -0.6280    -1.7895 O.3     
  52 C52            1.2998     0.4005    -2.7808 C.3     
  53 C53            1.7529    -0.1956    -4.1150 C.3     
  54 F54            2.9878    -0.8311    -3.9466 F       
  55 F55            0.8058    -1.1263    -4.5556 F       
  56 H56            0.4557    -1.5352     2.5613 H       
  57 H57            0.1119     0.8869     3.0061 H       
  58 H58            0.3260     2.4949     1.1576 H       
  59 H59            0.5310    -2.5594    -1.9239 H       
  60 H60            0.3027    -4.1639    -1.1879 H       
  61 H61           -3.6887    -2.2096    -0.4493 H       
  62 H62           -3.8983    -2.0516    -2.2123 H       
  63 H63           -4.2427    -4.5926    -0.5541 H       
  64 H64           -5.5327    -3.6667    -1.3597 H       
  65 H65           -4.4664    -4.1212    -3.5618 H       
  66 H66           -2.5574    -5.8195    -1.8913 H       
  67 H67           -2.6204    -5.7867    -3.6704 H       
  68 H68           -2.0378    -3.4037    -3.6930 H       
  69 H69           -0.8314    -4.2824    -2.7184 H       
  70 H70           -5.3448    -6.0059    -4.8156 H       
  71 H71           -3.9663    -6.9298    -4.1710 H       
  72 H72           -5.8106    -8.4299    -4.9162 H       
  73 H73           -5.5174    -8.5687    -3.1656 H       
  74 H74           -8.4255    -6.5384    -2.2517 H       
  75 H75           -7.0470    -7.4623    -1.6071 H       
  76 H76           -6.5812    -5.0383    -1.5065 H       
  77 H77           -6.8744    -4.8995    -3.2571 H       
  78 H78           -7.7719    -9.4585    -3.0178 H       
  79 H79            3.0486    -1.7604    -1.8237 H       
  80 H80            4.6131    -4.9870     1.5738 H       
  81 H81            3.5993    -7.5943     2.6942 H       
  82 H82            3.0652    -9.8349     1.8302 H       
  83 H83           -0.9433    -8.5792     1.0460 H       
  84 H84           -2.5579    -5.6263     1.5002 H       
  85 H85           -1.8137    -6.7942     0.3820 H       
  86 H86           -2.2952    -7.3094     2.0164 H       
  87 H87            2.6129   -11.1909     0.3017 H       
  88 H88            2.1313   -11.7054     1.9362 H       
  89 H89            1.4180   -12.4939     0.5086 H       
  90 H90          -10.2145    -9.1759    -3.3377 H       
  91 H91           -9.5499    -7.8795    -2.3149 H       
  92 H92           -9.9375    -7.5561    -4.0218 H       
  93 H93           -7.1547    -9.5986    -5.4154 H       
  94 H94           -8.8158   -10.1797    -5.1483 H       
  95 H95           -8.5387    -8.5600    -5.8323 H       
  96 H96            0.3070     0.8356    -2.8956 H       
  97 H97            2.0022     1.1745    -2.4714 H       
  98 H98            1.8514     0.5999    -4.8536 H       
@<TRIPOS>BOND
   1    1   31 1
   2    2    3 ar
   3    2    7 ar
   4    3    4 ar
   5    3   51 1
   6    4    5 ar
   7    4    8 1
   8    5    6 ar
   9    5   56 1
  10    6    7 ar
  11    6   57 1
  12    7   58 1
  13    8    9 1
  14    8   10 1
  15    8   28 1
  16    9   26 2
  17    9   27 am
  18   10   11 1
  19   10   59 1
  20   10   60 1
  21   11   12 am
  22   11   13 2
  23   12   14 1
  24   12   18 1
  25   14   15 1
  26   14   61 1
  27   14   62 1
  28   15   16 1
  29   15   63 1
  30   15   64 1
  31   16   17 1
  32   16   19 1
  33   16   65 1
  34   17   18 1
  35   17   66 1
  36   17   67 1
  37   18   68 1
  38   18   69 1
  39   19   20 1
  40   19   24 1
  41   20   21 1
  42   20   70 1
  43   20   71 1
  44   21   22 1
  45   21   72 1
  46   21   73 1
  47   22   23 1
  48   22   25 1
  49   23   24 1
  50   23   74 1
  51   23   75 1
  52   24   76 1
  53   24   77 1
  54   25   44 1
  55   25   45 1
  56   25   78 1
  57   27   48 am
  58   27   29 1
  59   28   29 ar
  60   28   30 ar
  61   29   33 ar
  62   30   31 ar
  63   30   79 1
  64   31   32 ar
  65   32   33 ar
  66   32   46 1
  67   33   80 1
  68   34   35 ar
  69   34   36 ar
  70   34   48 1
  71   35   41 1
  72   35   39 ar
  73   36   37 ar
  74   36   81 1
  75   37   38 ar
  76   37   82 1
  77   38   39 ar
  78   38   40 1
  79   39   83 1
  80   40   43 1
  81   41   42 1
  82   42   84 1
  83   42   85 1
  84   42   86 1
  85   43   87 1
  86   43   88 1
  87   43   89 1
  88   44   90 1
  89   44   91 1
  90   44   92 1
  91   45   93 1
  92   45   94 1
  93   45   95 1
  94   46   47 3
  95   48   49 2
  96   48   50 2
  97   51   52 1
  98   52   53 1
  99   52   96 1
 100   52   97 1
 101   53   54 1
 102   53   55 1
 103   53   98 1

#	End of record

