#	Name: ASD01884035
#	Creating user name:	WinNT
#	Creation time:	15. 06. 2019 19:47

#	Modifying user name:	WinNT
#	Modification time:	15. 06. 2019 19:47

#	Program:	/corina/corina34_cracker 3.40 0067  02.08.2006

@<TRIPOS>MOLECULE
ASD01884035
  54   56    0    0    0
SMALL
NO_CHARGES


@<TRIPOS>ATOM
   1 Cl1            0.0000     0.0000     0.0000 Cl      
   2 H2             0.0000     1.3700     0.0000 H       
   3 C3             7.7378    16.5679    19.0452 C.3     
   4 C4             7.8752    15.0478    18.9396 C.3     
   5 C5             8.6050    14.6905    17.6432 C.3     
   6 C6             8.7425    13.1704    17.5376 C.3     
   7 N7             9.4413    12.8283    16.2963 N.am    
   8 C8             8.8143    12.5782    14.9937 C.3     
   9 N9             9.8980    12.2759    14.0562 N.pl3   
  10 C10           11.0754    12.3423    14.7515 C.2     
  11 N11           12.0648    12.0720    13.9204 N.2     
  12 C12           11.5791    11.8318    12.7094 C.2     
  13 C13           12.3865    11.4850    11.4851 C.3     
  14 C14           10.2050    11.9543    12.7661 C.2     
  15 C15            9.2542    11.7729    11.6499 C.ar    
  16 C16            8.0845    11.0348    11.8399 C.ar    
  17 C17            7.1991    10.8671    10.7964 C.ar    
  18 C18            7.4687    11.4310     9.5569 C.ar    
  19 O19            6.5934    11.2632     8.5312 O.3     
  20 C20            6.8115    10.2389     7.6688 C.ar    
  21 C21            5.8888     9.9773     6.6642 C.ar    
  22 C22            6.1234     8.9295     5.7906 C.ar    
  23 C23            7.2782     8.1773     5.9540 C.ar    
  24 C24            8.1520     8.4941     6.9754 C.ar    
  25 N25            7.9037     9.5021     7.7895 N.ar    
  26 C26            9.4077     7.6814     7.1592 C.3     
  27 F27            9.7633     7.6721     8.5122 F       
  28 F28            9.1818     6.3700     6.7274 F       
  29 C29            8.6328    12.1679     9.3623 C.ar    
  30 F30            8.8909    12.7157     8.1547 F       
  31 C31            9.5207    12.3443    10.4033 C.ar    
  32 C32           10.7722    12.6938    16.1483 C.2     
  33 O33           11.5960    12.8382    17.0316 O.2     
  34 H34            8.7282    17.0229    19.0487 H       
  35 H35            7.1693    16.9414    18.1935 H       
  36 H36            7.2178    16.8224    19.9688 H       
  37 H37            8.4437    14.6743    19.7914 H       
  38 H38            6.8847    14.5928    18.9362 H       
  39 H39            8.0366    15.0640    16.7915 H       
  40 H40            9.5955    15.1455    17.6467 H       
  41 H41            9.3109    12.7969    18.3894 H       
  42 H42            7.7520    12.7154    17.5342 H       
  43 H43            8.1342    11.7293    15.0639 H       
  44 H44            8.2724    13.4647    14.6642 H       
  45 H45           12.5017    10.4030    11.4203 H       
  46 H46           11.8727    11.8496    10.5957 H       
  47 H47           13.3692    11.9515    11.5539 H       
  48 H48            7.8735    10.5951    12.8036 H       
  49 H49            6.2945    10.2958    10.9434 H       
  50 H50            5.0000    10.5830     6.5661 H       
  51 H51            5.4235     8.7023     5.0000 H       
  52 H52            7.4911     7.3528     5.2897 H       
  53 H53           10.2148     8.1225     6.5744 H       
  54 H54           10.4223    12.9197    10.2537 H       
@<TRIPOS>BOND
   1    1    2 1
   2    3    4 1
   3    3   34 1
   4    3   35 1
   5    3   36 1
   6    4    5 1
   7    4   37 1
   8    4   38 1
   9    5    6 1
  10    5   39 1
  11    5   40 1
  12    6    7 1
  13    6   41 1
  14    6   42 1
  15    7   32 am
  16    7    8 1
  17    8    9 1
  18    8   43 1
  19    8   44 1
  20    9   14 1
  21    9   10 1
  22   10   11 2
  23   10   32 1
  24   11   12 1
  25   12   13 1
  26   12   14 2
  27   13   45 1
  28   13   46 1
  29   13   47 1
  30   14   15 1
  31   15   31 ar
  32   15   16 ar
  33   16   17 ar
  34   16   48 1
  35   17   18 ar
  36   17   49 1
  37   18   19 1
  38   18   29 ar
  39   19   20 1
  40   20   25 ar
  41   20   21 ar
  42   21   22 ar
  43   21   50 1
  44   22   23 ar
  45   22   51 1
  46   23   24 ar
  47   23   52 1
  48   24   25 ar
  49   24   26 1
  50   26   27 1
  51   26   28 1
  52   26   53 1
  53   29   30 1
  54   29   31 ar
  55   31   54 1
  56   32   33 2

#	End of record

