#	Name: ASD03320163
#	Creating user name:	WinNT
#	Creation time:	15. 06. 2019 20:36

#	Modifying user name:	WinNT
#	Modification time:	15. 06. 2019 20:36

#	Program:	/corina/corina34_cracker 3.40 0067  02.08.2006

@<TRIPOS>MOLECULE
ASD03320163
  42   44    0    0    0
SMALL
NO_CHARGES


@<TRIPOS>ATOM
   1 C1            -0.0077     1.3440    -0.1945 C.ar    
   2 C2             0.0217    -0.0349     0.0277 C.ar    
   3 C3            -1.1525    -0.7587     0.0436 C.ar    
   4 C4            -2.3657    -0.1241    -0.1598 C.ar    
   5 C5            -2.4071     1.2547    -0.3830 C.ar    
   6 C6            -1.2279     1.9898    -0.3944 C.ar    
   7 C7             1.2505     2.1177    -0.2118 C.2     
   8 O8             1.2236     3.3177    -0.4053 O.2     
   9 N9             2.4283     1.4934    -0.0131 N.am    
  10 C10            3.6273     2.2078    -0.1264 C.ar    
  11 C11           -3.7084     1.9336    -0.6014 C.ar    
  12 C12            3.6885     3.5323     0.2864 C.ar    
  13 C13            4.8712     4.2361     0.1743 C.ar    
  14 C14            5.9981     3.6204    -0.3506 C.ar    
  15 C15            5.9378     2.2974    -0.7632 C.ar    
  16 C16            4.7573     1.5905    -0.6464 C.ar    
  17 O17            7.1622     4.3143    -0.4610 O.3     
  18 C18            8.2828     3.6181    -1.0103 C.3     
  19 F19            7.9761     3.1896    -2.3062 F       
  20 F20            9.3889     4.4737    -1.0515 F       
  21 F21            8.5805     2.5093    -0.2107 F       
  22 F22           -3.5118    -0.8391    -0.1429 F       
  23 C23           -4.6250     1.4427    -1.5343 C.ar    
  24 N24           -5.7732     2.0759    -1.6996 N.ar    
  25 C25           -6.0587     3.1599    -0.9959 C.ar    
  26 N26           -5.2169     3.6558    -0.1031 N.ar    
  27 C27           -4.0509     3.0769     0.1247 C.ar    
  28 O28           -7.2463     3.7799    -1.1956 O.3     
  29 C29           -7.5091     4.9460    -0.4126 C.3     
  30 H30            0.9655    -0.5352     0.1870 H       
  31 H31           -1.1250    -1.8246     0.2150 H       
  32 H32           -1.2553     3.0556    -0.5665 H       
  33 H33            2.4454     0.5492     0.2084 H       
  34 H34            2.8112     4.0118     0.6948 H       
  35 H35            4.9188     5.2663     0.4951 H       
  36 H36            6.8155     1.8187    -1.1718 H       
  37 H37            4.7106     0.5604    -0.9674 H       
  38 H38           -4.3986     0.5589    -2.1122 H       
  39 H39           -3.3690     3.4868     0.8550 H       
  40 H40           -7.4892     4.6853     0.6455 H       
  41 H41           -6.7478     5.6992    -0.6156 H       
  42 H42           -8.4909     5.3432    -0.6705 H       
@<TRIPOS>BOND
   1    1    2 ar
   2    1    7 1
   3    1    6 ar
   4    2    3 ar
   5    2   30 1
   6    3    4 ar
   7    3   31 1
   8    4    5 ar
   9    4   22 1
  10    5    6 ar
  11    5   11 1
  12    6   32 1
  13    7    8 2
  14    7    9 am
  15    9   10 1
  16    9   33 1
  17   10   12 ar
  18   10   16 ar
  19   11   23 ar
  20   11   27 ar
  21   12   13 ar
  22   12   34 1
  23   13   14 ar
  24   13   35 1
  25   14   15 ar
  26   14   17 1
  27   15   16 ar
  28   15   36 1
  29   16   37 1
  30   17   18 1
  31   18   19 1
  32   18   20 1
  33   18   21 1
  34   23   24 ar
  35   23   38 1
  36   24   25 ar
  37   25   26 ar
  38   25   28 1
  39   26   27 ar
  40   27   39 1
  41   28   29 1
  42   29   40 1
  43   29   41 1
  44   29   42 1

#	End of record

