#	Name: ASD01915031
#	Creating user name:	WinNT
#	Creation time:	15. 06. 2019 20:04

#	Modifying user name:	WinNT
#	Modification time:	15. 06. 2019 20:04

#	Program:	/corina/corina34_cracker 3.40 0067  02.08.2006

@<TRIPOS>MOLECULE
ASD01915031
  43   46    0    0    0
SMALL
NO_CHARGES


@<TRIPOS>ATOM
   1 C1            -0.2250     1.4610    -1.1262 C.ar    
   2 C2            -0.2366     0.0859    -1.2803 C.ar    
   3 C3             0.9604    -0.6059    -1.1442 C.ar    
   4 C4             2.1170     0.0948    -0.8613 C.ar    
   5 N5             2.0952     1.4067    -0.7201 N.ar    
   6 C6             0.9755     2.0995    -0.8424 C.ar    
   7 O7             0.9996     3.4476    -0.6891 O.3     
   8 C8             2.2647     4.0450    -0.3983 C.3     
   9 C9             2.0968     5.5365    -0.2632 C.2     
  10 C10            0.8950     6.2457    -0.3925 C.2     
  11 N11            3.0494     6.3999     0.0019 N.2     
  12 C12            1.2321     7.5541    -0.1922 C.2     
  13 C13            0.4247     8.7834    -0.1927 C.2     
  14 N14            2.5860     7.5868     0.0603 N.pl3   
  15 C15            3.2730     8.8498     0.3562 C.3     
  16 C16            2.5572     9.9929    -0.3619 C.3     
  17 N17            1.1093     9.9526    -0.1719 N.am    
  18 O18           -0.7912     8.7522    -0.2113 O.2     
  19 C19            3.2519     9.1015     1.8652 C.3     
  20 Cl20           1.0023    -2.3317    -1.3270 Cl      
  21 C21            0.4148    11.1475     0.0412 C.ar    
  22 C22            0.3172    12.0870    -0.9775 C.ar    
  23 C23           -0.3696    13.2659    -0.7647 C.ar    
  24 C24           -0.9599    13.5127     0.4613 C.ar    
  25 C25           -0.8645    12.5795     1.4787 C.ar    
  26 C26           -0.1835    11.3947     1.2696 C.ar    
  27 Cl27          -1.6066    12.8937     3.0163 Cl      
  28 H28           -1.1366     2.0308    -1.2297 H       
  29 H29           -1.1551    -0.4375    -1.5010 H       
  30 H30            3.0504    -0.4377    -0.7540 H       
  31 H31            2.6532     3.6371     0.5349 H       
  32 H32            2.9627     3.8298    -1.2074 H       
  33 H33           -0.0850     5.8448    -0.6051 H       
  34 H34            4.3052     8.7924     0.0105 H       
  35 H35            2.9362    10.9410     0.0196 H       
  36 H36            2.7762     9.9315    -1.4280 H       
  37 H37            3.7591     8.2838     2.3771 H       
  38 H38            3.7621    10.0395     2.0842 H       
  39 H39            2.2193     9.1607     2.2092 H       
  40 H40            0.7785    11.8956    -1.9351 H       
  41 H41           -0.4455    13.9963    -1.5566 H       
  42 H42           -1.4961    14.4357     0.6252 H       
  43 H43           -0.1131    10.6644     2.0621 H       
@<TRIPOS>BOND
   1    1    2 ar
   2    1    6 ar
   3    1   28 1
   4    2    3 ar
   5    2   29 1
   6    3    4 ar
   7    3   20 1
   8    4    5 ar
   9    4   30 1
  10    5    6 ar
  11    6    7 1
  12    7    8 1
  13    8    9 1
  14    8   31 1
  15    8   32 1
  16    9   11 2
  17    9   10 1
  18   10   12 2
  19   10   33 1
  20   11   14 1
  21   12   14 1
  22   12   13 1
  23   13   17 am
  24   13   18 2
  25   14   15 1
  26   15   16 1
  27   15   19 1
  28   15   34 1
  29   16   17 1
  30   16   35 1
  31   16   36 1
  32   17   21 1
  33   19   37 1
  34   19   38 1
  35   19   39 1
  36   21   22 ar
  37   21   26 ar
  38   22   23 ar
  39   22   40 1
  40   23   24 ar
  41   23   41 1
  42   24   25 ar
  43   24   42 1
  44   25   26 ar
  45   25   27 1
  46   26   43 1

#	End of record

