#	Name: ASD02030609
#	Creating user name:	WinNT
#	Creation time:	15. 06. 2019 20:15

#	Modifying user name:	WinNT
#	Modification time:	15. 06. 2019 20:15

#	Program:	/corina/corina34_cracker 3.40 0067  02.08.2006

@<TRIPOS>MOLECULE
ASD02030609
  65   68    0    0    0
SMALL
NO_CHARGES


@<TRIPOS>ATOM
   1 C1            -0.0319     1.3684    -0.0542 C.ar    
   2 C2            -0.0837    -0.0085    -0.0849 C.ar    
   3 C3             1.0971    -0.7400    -0.1173 C.ar    
   4 C4             2.3145    -0.0778    -0.1126 C.ar    
   5 C5             2.3626     1.3094    -0.0757 C.ar    
   6 C6             1.1892     2.0304    -0.0551 C.ar    
   7 C7             1.1700     3.5387    -0.0478 C.3     
   8 C8             3.7211     1.9590    -0.0444 C.3     
   9 C9             3.6376     3.4167    -0.4940 C.3     
  10 N10            2.5181     4.0488     0.2233 N.am    
  11 C11            0.6974     4.0483    -1.4109 C.3     
  12 O12            1.5209     3.4935    -2.4385 O.3     
  13 C13            1.2328     3.8482    -3.7193 C.ar    
  14 C14            2.7238     5.0566     1.0942 C.2     
  15 O15            3.8565     5.4081     1.3605 O.2     
  16 C16            1.5717     5.7346     1.7257 C.ar    
  17 C17            0.6461     4.5699    -6.3266 C.ar    
  18 C18           -0.1095     5.0770    -5.2799 C.ar    
  19 C19            0.1830     4.7167    -3.9789 C.ar    
  20 C20            1.9924     3.3460    -4.7655 C.ar    
  21 C21            1.6998     3.7063    -6.0665 C.ar    
  22 C22            1.6630     6.1929     3.0406 C.ar    
  23 C23            0.3899     5.9240     1.0072 C.ar    
  24 C24           -0.6816     6.5577     1.6015 C.ar    
  25 C25           -0.5873     7.0060     2.9071 C.ar    
  26 C26            0.5832     6.8258     3.6242 C.ar    
  27 Cl27           0.6940     7.3971     5.2598 Cl      
  28 N28            1.0573    -2.1356    -0.1538 N.pl3   
  29 O29            0.3581     4.9247    -7.6074 O.3     
  30 C30            1.1774     4.3646    -8.6356 C.3     
  31 C31           -0.2250    -2.8351    -0.0412 C.3     
  32 C32            2.2979    -2.9001    -0.3049 C.3     
  33 C33           -0.4037    -3.7686    -1.2401 C.3     
  34 C34           -0.2472    -3.6544     1.2508 C.3     
  35 H35           -0.9493     1.9380    -0.0338 H       
  36 H36           -1.0370    -0.5161    -0.0834 H       
  37 H37            3.2330    -0.6453    -0.1376 H       
  38 H38            0.4872     3.8889     0.7262 H       
  39 H39            4.1141     1.9192     0.9715 H       
  40 H40            4.3932     1.4166    -0.7094 H       
  41 H41            4.5677     3.9310    -0.2522 H       
  42 H42            3.4594     3.4615    -1.5684 H       
  43 H43           -0.3376     3.7472    -1.5724 H       
  44 H44            0.7677     5.1358    -1.4364 H       
  45 H45           -0.9300     5.7494    -5.4825 H       
  46 H46           -0.4059     5.1109    -3.1640 H       
  47 H47            2.8129     2.6736    -4.5629 H       
  48 H48            2.2882     3.3115    -6.8815 H       
  49 H49            2.5758     6.0528     3.6005 H       
  50 H50            0.3148     5.5754    -0.0122 H       
  51 H51           -1.5962     6.7046     1.0463 H       
  52 H52           -1.4290     7.5021     3.3674 H       
  53 H53            2.2141     4.6608    -8.4757 H       
  54 H54            1.1018     3.2776    -8.6087 H       
  55 H55            0.8412     4.7283    -9.6065 H       
  56 H56           -1.0358    -2.1069    -0.0236 H       
  57 H57            2.7116    -3.1194     0.6794 H       
  58 H58            2.0882    -3.8335    -0.8271 H       
  59 H59            3.0170    -2.3160    -0.8792 H       
  60 H60           -1.3578    -4.2891    -1.1563 H       
  61 H61           -0.3879    -3.1850    -2.1606 H       
  62 H62            0.4071    -4.4969    -1.2577 H       
  63 H63           -0.1198    -2.9893     2.1050 H       
  64 H64           -1.2013    -4.1748     1.3346 H       
  65 H65            0.5636    -4.3826     1.2333 H       
@<TRIPOS>BOND
   1    1    2 ar
   2    1    6 ar
   3    1   35 1
   4    2    3 ar
   5    2   36 1
   6    3    4 ar
   7    3   28 1
   8    4    5 ar
   9    4   37 1
  10    5    6 ar
  11    5    8 1
  12    6    7 1
  13    7   10 1
  14    7   11 1
  15    7   38 1
  16    8    9 1
  17    8   39 1
  18    8   40 1
  19    9   10 1
  20    9   41 1
  21    9   42 1
  22   10   14 am
  23   11   12 1
  24   11   43 1
  25   11   44 1
  26   12   13 1
  27   13   20 ar
  28   13   19 ar
  29   14   15 2
  30   14   16 1
  31   16   23 ar
  32   16   22 ar
  33   17   18 ar
  34   17   21 ar
  35   17   29 1
  36   18   19 ar
  37   18   45 1
  38   19   46 1
  39   20   21 ar
  40   20   47 1
  41   21   48 1
  42   22   26 ar
  43   22   49 1
  44   23   24 ar
  45   23   50 1
  46   24   25 ar
  47   24   51 1
  48   25   26 ar
  49   25   52 1
  50   26   27 1
  51   28   31 1
  52   28   32 1
  53   29   30 1
  54   30   53 1
  55   30   54 1
  56   30   55 1
  57   31   33 1
  58   31   34 1
  59   31   56 1
  60   32   57 1
  61   32   58 1
  62   32   59 1
  63   33   60 1
  64   33   61 1
  65   33   62 1
  66   34   63 1
  67   34   64 1
  68   34   65 1

#	End of record

