#	Name: ASD02500258
#	Creating user name:	WinNT
#	Creation time:	15. 06. 2019 20:22

#	Modifying user name:	WinNT
#	Modification time:	15. 06. 2019 20:22

#	Program:	/corina/corina34_cracker 3.40 0067  02.08.2006

@<TRIPOS>MOLECULE
ASD02500258
  70   74    0    0    0
SMALL
NO_CHARGES


@<TRIPOS>ATOM
   1 N1            -3.4939     6.0375    -2.0210 N.ar    
   2 C2            -4.0887     6.6763    -2.9990 C.ar    
   3 C3            -5.4772     6.7416    -3.0946 C.ar    
   4 C4            -6.2548     6.1294    -2.1535 C.ar    
   5 C5            -5.6126     5.4439    -1.1049 C.ar    
   6 C6            -6.3455     4.7912    -0.1011 C.ar    
   7 C7            -5.6871     4.1393     0.8968 C.ar    
   8 C8            -4.2947     4.1116     0.9355 C.ar    
   9 C9            -3.5530     4.7336    -0.0213 C.ar    
  10 C10           -4.1962     5.4171    -1.0677 C.ar    
  11 S11           -1.7933     4.6833     0.0521 S.o2    
  12 O12           -1.3454     6.0186    -0.1366 O.2     
  13 O13           -1.4614     3.9064     1.1947 O.2     
  14 N14           -1.2721     3.8248    -1.2646 N.am    
  15 C15           -1.6014     2.4798    -1.3925 C.ar    
  16 C16           -2.0847     1.9974    -2.6028 C.ar    
  17 C17           -2.4119     0.6592    -2.7303 C.ar    
  18 C18           -2.2526    -0.2025    -1.6332 C.ar    
  19 C19           -1.7651     0.2984    -0.4219 C.ar    
  20 C20           -1.4402     1.6194    -0.3084 C.ar    
  21 C21           -2.5982    -1.6283    -1.7575 C.2     
  22 O22           -3.7075    -1.9546    -2.1347 O.2     
  23 N23           -1.6852    -2.5719    -1.4533 N.am    
  24 C24           -1.9834    -3.9958    -1.6613 C.3     
  25 C25           -0.8907    -4.6004    -2.5517 C.3     
  26 N26            0.4210    -4.2238    -2.0064 N.am    
  27 C27            0.7193    -2.7999    -1.7983 C.3     
  28 C28           -0.3714    -2.1950    -0.9132 C.3     
  29 C29            1.3340    -5.1674    -1.7022 C.2     
  30 O30            1.0763    -6.3395    -1.8778 O.2     
  31 C31            2.6750    -4.7662    -1.1437 C.3     
  32 C32            3.5034    -5.9995    -0.8912 C.ar    
  33 C33            4.3250    -6.4959    -1.8859 C.ar    
  34 C34            5.0848    -7.6272    -1.6543 C.ar    
  35 C35            5.0234    -8.2619    -0.4279 C.ar    
  36 C36            4.2024    -7.7651     0.5671 C.ar    
  37 C37            3.4458    -6.6313     0.3370 C.ar    
  38 C38            5.8510    -9.4959    -0.1757 C.3     
  39 F39            7.0965    -9.1243     0.3418 F       
  40 F40            5.1915   -10.3201     0.7424 F       
  41 F41            6.0332   -10.1887    -1.3774 F       
  42 O42           -2.8846     0.1821    -3.9091 O.3     
  43 C43           -3.0202     1.1183    -4.9802 C.3     
  44 H44           -3.4864     7.1652    -3.7505 H       
  45 H45           -5.9381     7.2762    -3.9120 H       
  46 H46           -7.3325     6.1702    -2.2120 H       
  47 H47           -7.4252     4.8064    -0.1200 H       
  48 H48           -6.2517     3.6375     1.6687 H       
  49 H49           -3.7959     3.5883     1.7378 H       
  50 H50           -0.7371     4.2602    -1.9466 H       
  51 H51           -2.2049     2.6660    -3.4424 H       
  52 H52           -1.6415    -0.3618     0.4238 H       
  53 H53           -1.0599     2.0005     0.6279 H       
  54 H54           -1.9989    -4.5105    -0.7006 H       
  55 H55           -2.9522    -4.0991    -2.1501 H       
  56 H56           -0.9852    -5.6863    -2.5604 H       
  57 H57           -0.9899    -4.2139    -3.5660 H       
  58 H58            1.6881    -2.6966    -1.3095 H       
  59 H59            0.7347    -2.2852    -2.7590 H       
  60 H60           -0.2758    -1.1092    -0.9081 H       
  61 H61           -0.2694    -2.5785     0.1020 H       
  62 H62            3.1887    -4.1236    -1.8586 H       
  63 H63            2.5320    -4.2266    -0.2075 H       
  64 H64            4.3730    -5.9999    -2.8441 H       
  65 H65            5.7262    -8.0153    -2.4317 H       
  66 H66            4.1541    -8.2612     1.5252 H       
  67 H67            2.8072    -6.2410     1.1156 H       
  68 H68           -3.4068     0.6077    -5.8622 H       
  69 H69           -3.7104     1.9091    -4.6864 H       
  70 H70           -2.0468     1.5521    -5.2090 H       
@<TRIPOS>BOND
   1    1    2 ar
   2    1   10 ar
   3    2    3 ar
   4    2   44 1
   5    3    4 ar
   6    3   45 1
   7    4    5 ar
   8    4   46 1
   9    5    6 ar
  10    5   10 ar
  11    6    7 ar
  12    6   47 1
  13    7    8 ar
  14    7   48 1
  15    8    9 ar
  16    8   49 1
  17    9   10 ar
  18    9   11 1
  19   11   12 2
  20   11   13 2
  21   11   14 am
  22   14   15 1
  23   14   50 1
  24   15   16 ar
  25   15   20 ar
  26   16   17 ar
  27   16   51 1
  28   17   18 ar
  29   17   42 1
  30   18   19 ar
  31   18   21 1
  32   19   20 ar
  33   19   52 1
  34   20   53 1
  35   21   22 2
  36   21   23 am
  37   23   24 1
  38   23   28 1
  39   24   25 1
  40   24   54 1
  41   24   55 1
  42   25   26 1
  43   25   56 1
  44   25   57 1
  45   26   27 1
  46   26   29 am
  47   27   28 1
  48   27   58 1
  49   27   59 1
  50   28   60 1
  51   28   61 1
  52   29   30 2
  53   29   31 1
  54   31   32 1
  55   31   62 1
  56   31   63 1
  57   32   33 ar
  58   32   37 ar
  59   33   34 ar
  60   33   64 1
  61   34   35 ar
  62   34   65 1
  63   35   36 ar
  64   35   38 1
  65   36   37 ar
  66   36   66 1
  67   37   67 1
  68   38   39 1
  69   38   40 1
  70   38   41 1
  71   42   43 1
  72   43   68 1
  73   43   69 1
  74   43   70 1

#	End of record

