#	Name: ASD01813444
#	Creating user name:	WinNT
#	Creation time:	15. 06. 2019 19:30

#	Modifying user name:	WinNT
#	Modification time:	15. 06. 2019 19:30

#	Program:	/corina/corina34_cracker 3.40 0067  02.08.2006

@<TRIPOS>MOLECULE
ASD01813444
  49   53    0    0    0
SMALL
NO_CHARGES


@<TRIPOS>ATOM
   1 C1            -0.0167     1.3820     0.0096 C.ar    
   2 C2             0.0021    -0.0041     0.0020 C.ar    
   3 C3             1.1959    -0.6932    -0.0127 C.ar    
   4 C4             2.4016     0.0019    -0.0200 C.ar    
   5 C5             2.3831     1.4075    -0.0128 C.ar    
   6 C6             1.1665     2.0939     0.0022 C.ar    
   7 N7             3.6010    -0.6771    -0.0337 N.pl3   
   8 C8             4.7870    -0.0549    -0.0404 C.2     
   9 C9             4.8957     1.3208    -0.0340 C.2     
  10 C10            3.6667     2.1313    -0.0207 C.2     
  11 O11            3.7091     3.3491    -0.0150 O.2     
  12 C12            6.2161     1.9660    -0.0412 C.2     
  13 O13            6.3092     3.3109    -0.0348 O.3     
  14 O14            7.2244     1.2870    -0.0529 O.2     
  15 C15            3.5775    -2.1419    -0.0409 C.3     
  16 C16            3.5572    -2.6371    -1.4640 C.ar    
  17 C17            4.7475    -2.8826    -2.1250 C.ar    
  18 C18            4.7355    -3.3361    -3.4281 C.ar    
  19 C19            3.5200    -3.5468    -4.0790 C.ar    
  20 C20            2.3233    -3.2975    -3.4072 C.ar    
  21 C21            2.3483    -2.8496    -2.1023 C.ar    
  22 C22            3.5000    -4.0330    -5.4778 C.ar    
  23 F23            1.1476     3.4448     0.0091 F       
  24 C24            4.2655    -3.4203    -6.4609 C.ar    
  25 C25            4.2239    -3.9021    -7.7640 C.ar    
  26 N26            3.4777    -4.9268    -8.1003 N.ar    
  27 C27            2.7151    -5.5658    -7.2069 C.ar    
  28 C28            2.7032    -5.1432    -5.8559 C.ar    
  29 C29            1.9218    -6.6632    -7.5858 C.ar    
  30 C30            1.1552    -7.2955    -6.6558 C.ar    
  31 C31            1.1417    -6.8729    -5.3285 C.ar    
  32 C32            1.9026    -5.8173    -4.9243 C.ar    
  33 H33           -0.9604     1.9071     0.0170 H       
  34 H34           -0.9295    -0.5505     0.0080 H       
  35 H35            1.1956    -1.7731    -0.0181 H       
  36 H36            5.6884    -0.6497    -0.0508 H       
  37 H37            7.1990     3.6894    -0.0400 H       
  38 H38            4.4660    -2.5220     0.4634 H       
  39 H39            2.6863    -2.4936     0.4789 H       
  40 H40            5.6881    -2.7187    -1.6202 H       
  41 H41            5.6653    -3.5271    -3.9432 H       
  42 H42            1.3790    -3.4588    -3.9059 H       
  43 H43            1.4224    -2.6562    -1.5811 H       
  44 H44            4.8894    -2.5738    -6.2145 H       
  45 H45            4.8230    -3.4185    -8.5214 H       
  46 H46            1.9205    -7.0028    -8.6111 H       
  47 H47            0.5475    -8.1379    -6.9516 H       
  48 H48            0.5241    -7.3913    -4.6100 H       
  49 H49            1.8846    -5.4985    -3.8925 H       
@<TRIPOS>BOND
   1    1    2 ar
   2    1    6 ar
   3    1   33 1
   4    2    3 ar
   5    2   34 1
   6    3    4 ar
   7    3   35 1
   8    4    5 ar
   9    4    7 1
  10    5    6 ar
  11    5   10 1
  12    6   23 1
  13    7    8 1
  14    7   15 1
  15    8    9 2
  16    8   36 1
  17    9   10 1
  18    9   12 1
  19   10   11 2
  20   12   13 1
  21   12   14 2
  22   13   37 1
  23   15   16 1
  24   15   38 1
  25   15   39 1
  26   16   17 ar
  27   16   21 ar
  28   17   18 ar
  29   17   40 1
  30   18   19 ar
  31   18   41 1
  32   19   20 ar
  33   19   22 1
  34   20   21 ar
  35   20   42 1
  36   21   43 1
  37   22   24 ar
  38   22   28 ar
  39   24   25 ar
  40   24   44 1
  41   25   26 ar
  42   25   45 1
  43   26   27 ar
  44   27   28 ar
  45   27   29 ar
  46   28   32 ar
  47   29   30 ar
  48   29   46 1
  49   30   31 ar
  50   30   47 1
  51   31   32 ar
  52   31   48 1
  53   32   49 1

#	End of record

