#	Name: ASD04591088
#	Creating user name:	WinNT
#	Creation time:	15. 06. 2019 20:52

#	Modifying user name:	WinNT
#	Modification time:	15. 06. 2019 20:52

#	Program:	/corina/corina34_cracker 3.40 0067  02.08.2006

@<TRIPOS>MOLECULE
ASD04591088
  71   77    0    0    0
SMALL
NO_CHARGES


@<TRIPOS>ATOM
   1 N1            -2.3735    -2.6998     0.0174 N.ar    
   2 C2            -1.2073    -2.0669     0.0045 C.ar    
   3 N3            -0.0525    -2.7125    -0.0180 N.ar    
   4 C4            -0.0201    -4.0417    -0.0283 C.ar    
   5 C5            -1.2424    -4.7436    -0.0147 C.ar    
   6 C6            -2.4313    -4.0214     0.0085 C.ar    
   7 N7             1.0044    -4.9553    -0.0508 N.pl3   
   8 C8             0.5023    -6.2452    -0.0526 C.ar    
   9 C9            -0.9020    -6.1720    -0.0304 C.ar    
  10 C10            1.0997    -7.4989    -0.0710 C.ar    
  11 N11            0.3642    -8.5919    -0.0677 N.ar    
  12 C12           -0.9566    -8.5576    -0.0471 C.ar    
  13 C13           -1.6355    -7.3578    -0.0275 C.ar    
  14 N14           -1.1986    -0.6819     0.0146 N.pl3   
  15 C15           -2.3983     0.0237    -0.0757 C.ar    
  16 N16           -3.5301    -0.6329    -0.2724 N.ar    
  17 C17           -4.6881    -0.0068    -0.3641 C.ar    
  18 C18           -4.7581     1.3740    -0.2568 C.ar    
  19 C19           -3.5860     2.0997    -0.0492 C.ar    
  20 C20           -2.3920     1.4088     0.0478 C.ar    
  21 N21           -5.9903     2.0310    -0.3561 N.3     
  22 C22            2.4288    -4.6131    -0.0707 C.3     
  23 C23           -6.2409     2.8613     0.8289 C.3     
  24 C24            2.7528    -3.7777    -1.3217 C.3     
  25 C25            3.2879    -2.4209    -0.8192 C.3     
  26 C26            3.8193    -2.7255     0.6034 C.3     
  27 C27            2.7783    -3.7347     1.1484 C.3     
  28 C28           -7.0815     1.0727    -0.5735 C.3     
  29 C29           -8.3869     1.8320    -0.8218 C.3     
  30 C30           -8.6944     2.7182     0.3884 C.3     
  31 C31           -7.5212     3.6739     0.6224 C.3     
  32 N32           -9.9154     3.4934     0.1316 N.3     
  33 C33          -11.0637     2.5972    -0.1589 C.3     
  34 C34          -10.3066     4.2765     1.3238 C.3     
  35 C35          -11.8457     4.3226     1.3489 C.3     
  36 C36          -12.2945     3.4954     0.1224 C.3     
  37 O37          -13.4387     2.7004     0.4399 O.3     
  38 H38           -3.3838    -4.5303     0.0191 H       
  39 H39            2.1766    -7.5784    -0.0886 H       
  40 H40           -1.5126    -9.4834    -0.0458 H       
  41 H41           -2.7152    -7.3368    -0.0103 H       
  42 H42           -0.3581    -0.2027     0.0844 H       
  43 H43           -5.5916    -0.5763    -0.5249 H       
  44 H44           -3.6105     3.1759     0.0382 H       
  45 H45           -1.4650     1.9391     0.2088 H       
  46 H46            3.0309    -5.5216    -0.0621 H       
  47 H47           -6.3543     2.2210     1.7037 H       
  48 H48           -5.4011     3.5392     0.9816 H       
  49 H49            3.5128    -4.2805    -1.9198 H       
  50 H50            1.8503    -3.6270    -1.9140 H       
  51 H51            4.0954    -2.0681    -1.4606 H       
  52 H52            2.4841    -1.6859    -0.7769 H       
  53 H53            4.8094    -3.1790     0.5571 H       
  54 H54            3.8356    -1.8211     1.2116 H       
  55 H55            1.8922    -3.2118     1.5084 H       
  56 H56            3.2139    -4.3407     1.9428 H       
  57 H57           -6.8523     0.4516    -1.4394 H       
  58 H58           -7.1910     0.4408     0.3078 H       
  59 H59           -8.2828     2.4537    -1.7111 H       
  60 H60           -9.1996     1.1204    -0.9677 H       
  61 H61           -8.8370     2.0937     1.2703 H       
  62 H62           -7.7154     4.2783     1.5085 H       
  63 H63           -7.4035     4.3246    -0.2441 H       
  64 H64          -11.0496     2.2794    -1.2014 H       
  65 H65          -11.0567     1.7346     0.5075 H       
  66 H66           -9.9349     3.7903     2.2257 H       
  67 H67           -9.9059     5.2876     1.2517 H       
  68 H68          -12.2227     3.8726     2.2673 H       
  69 H69          -12.1948     5.3513     1.2597 H       
  70 H70          -12.4994     4.1461    -0.7277 H       
  71 H71          -14.2153     3.2149     0.6994 H       
@<TRIPOS>BOND
   1    1    2 ar
   2    1    6 ar
   3    2    3 ar
   4    2   14 1
   5    3    4 ar
   6    4    5 ar
   7    4    7 1
   8    5    6 ar
   9    5    9 1
  10    6   38 1
  11    7    8 1
  12    7   22 1
  13    8    9 ar
  14    8   10 ar
  15    9   13 ar
  16   10   11 ar
  17   10   39 1
  18   11   12 ar
  19   12   13 ar
  20   12   40 1
  21   13   41 1
  22   14   15 1
  23   14   42 1
  24   15   16 ar
  25   15   20 ar
  26   16   17 ar
  27   17   18 ar
  28   17   43 1
  29   18   19 ar
  30   18   21 1
  31   19   20 ar
  32   19   44 1
  33   20   45 1
  34   21   28 1
  35   21   23 1
  36   22   24 1
  37   22   27 1
  38   22   46 1
  39   23   31 1
  40   23   47 1
  41   23   48 1
  42   24   25 1
  43   24   49 1
  44   24   50 1
  45   25   26 1
  46   25   51 1
  47   25   52 1
  48   26   27 1
  49   26   53 1
  50   26   54 1
  51   27   55 1
  52   27   56 1
  53   28   29 1
  54   28   57 1
  55   28   58 1
  56   29   30 1
  57   29   59 1
  58   29   60 1
  59   30   31 1
  60   30   32 1
  61   30   61 1
  62   31   62 1
  63   31   63 1
  64   32   34 1
  65   32   33 1
  66   33   36 1
  67   33   64 1
  68   33   65 1
  69   34   35 1
  70   34   66 1
  71   34   67 1
  72   35   36 1
  73   35   68 1
  74   35   69 1
  75   36   37 1
  76   36   70 1
  77   37   71 1

#	End of record

