#	Name: ASD01940568
#	Creating user name:	WinNT
#	Creation time:	15. 06. 2019 20:12

#	Modifying user name:	WinNT
#	Modification time:	15. 06. 2019 20:12

#	Program:	/corina/corina34_cracker 3.40 0067  02.08.2006

@<TRIPOS>MOLECULE
ASD01940568
  81   87    0    0    0
SMALL
NO_CHARGES


@<TRIPOS>ATOM
   1 C1             0.0885     1.4753    -0.5092 C.ar    
   2 C2             0.4273     0.6425     0.5471 C.ar    
   3 C3             1.6494    -0.0153     0.5439 C.ar    
   4 C4             2.5292     0.1622    -0.5165 C.ar    
   5 C5             2.1887     0.9928    -1.5669 C.ar    
   6 C6             0.9728     1.6485    -1.5668 C.ar    
   7 N7            -1.1462     2.1362    -0.5125 N.am    
   8 C8            -1.1951     3.4816    -0.1916 C.2     
   9 C9            -2.4435     4.1482    -0.1954 C.2     
  10 C10           -3.6496     3.3672    -0.5453 C.2     
  11 N11           -3.4789     2.0090    -0.8527 N.am    
  12 C12           -2.2567     1.4526    -0.8323 C.2     
  13 C13           -0.0569     4.1959     0.1331 C.2     
  14 C14           -0.1690     5.5524     0.4478 C.2     
  15 N15           -1.3639     6.1693     0.4395 N.am    
  16 C16           -2.5070     5.4928     0.1234 C.2     
  17 N17           -3.7159     6.1455     0.1208 N.pl3   
  18 C18           -1.4406     7.5931     0.7759 C.3     
  19 O19            0.8337     6.1878     0.7353 O.2     
  20 C20            1.2894     3.5188     0.1478 C.3     
  21 C21           -4.8590     3.9347    -0.5675 C.2     
  22 C22           -4.5928     1.2275    -1.1900 C.ar    
  23 N23            1.9950    -0.8554     1.6072 N.am    
  24 C24            1.5993    -0.5545     2.8599 C.2     
  25 C25            1.8633    -1.4986     3.9647 C.ar    
  26 O26            1.0249     0.4941     3.0806 O.2     
  27 C27           -4.4979     6.1744     1.2808 C.ar    
  28 C28           -4.0103     5.6326     2.4625 C.ar    
  29 C29           -4.7844     5.6630     3.6061 C.ar    
  30 C30           -6.0444     6.2320     3.5762 C.ar    
  31 C31           -6.5349     6.7726     2.4017 C.ar    
  32 C32           -5.7633     6.7509     1.2542 C.ar    
  33 F33           -6.2399     7.2844     0.1082 F       
  34 O34           -2.1518     0.2738    -1.1106 O.2     
  35 C35           -6.8851     6.2628     4.8265 C.3     
  36 C36            1.4541    -1.1888     5.2633 C.ar    
  37 C37            1.7038    -2.0763     6.2944 C.ar    
  38 C38            2.3610    -3.2745     6.0377 C.ar    
  39 C39            2.7687    -3.5840     4.7488 C.ar    
  40 C40            2.5177    -2.7059     3.7124 C.ar    
  41 C41           -5.2980     1.4903    -2.3569 C.ar    
  42 C42           -6.3947     0.7198    -2.6888 C.ar    
  43 C43           -6.7924    -0.3164    -1.8564 C.ar    
  44 C44           -6.0886    -0.5792    -0.6902 C.ar    
  45 C45           -4.9879     0.1866    -0.3603 C.ar    
  46 F46            2.6035    -4.1394     7.0469 F       
  47 F47            3.4073    -4.7494     4.5052 F       
  48 O48            1.3067    -1.7768     7.5597 O.3     
  49 O49           -7.8727    -1.0744    -2.1836 O.3     
  50 C50           -7.3112     7.6328     5.3578 C.3     
  51 C51           -8.3393     6.7182     4.6889 C.3     
  52 H52           -0.2583     0.5065     1.3705 H       
  53 H53            3.4804    -0.3493    -0.5197 H       
  54 H54            2.8746     1.1297    -2.3898 H       
  55 H55            0.7093     2.2965    -2.3896 H       
  56 H56           -4.0273     6.5864    -0.6852 H       
  57 H57           -0.4570     7.9468     1.0852 H       
  58 H58           -1.7708     8.1555    -0.0975 H       
  59 H59           -2.1509     7.7364     1.5901 H       
  60 H60            1.6986     3.5018    -0.8624 H       
  61 H61            1.9648     4.0675     0.8042 H       
  62 H62            1.1785     2.4975     0.5121 H       
  63 H63           -4.9793     4.9616    -0.2554 H       
  64 H64           -5.7161     3.3666    -0.8976 H       
  65 H65            2.5196    -1.6546     1.4431 H       
  66 H66           -3.0266     5.1875     2.4874 H       
  67 H67           -4.4051     5.2412     4.5252 H       
  68 H68           -7.5196     7.2156     2.3816 H       
  69 H69           -6.6683     5.4844     5.5581 H       
  70 H70            0.9439    -0.2579     5.4623 H       
  71 H71            2.8314    -2.9510     2.7084 H       
  72 H72           -4.9889     2.2973    -3.0046 H       
  73 H73           -6.9433     0.9241    -3.5963 H       
  74 H74           -6.3989    -1.3858    -0.0425 H       
  75 H75           -4.4374    -0.0209     0.5454 H       
  76 H76            0.4153    -2.0835     7.7753 H       
  77 H77           -7.6608    -1.8502    -2.7205 H       
  78 H78           -7.3750     7.7558     6.4390 H       
  79 H79           -6.9833     8.5120     4.8030 H       
  80 H80           -8.6878     6.9957     3.6941 H       
  81 H81           -9.0794     6.2395     5.3300 H       
@<TRIPOS>BOND
   1    1    2 ar
   2    1    6 ar
   3    1    7 1
   4    2    3 ar
   5    2   52 1
   6    3    4 ar
   7    3   23 1
   8    4    5 ar
   9    4   53 1
  10    5    6 ar
  11    5   54 1
  12    6   55 1
  13    7    8 1
  14    7   12 am
  15    8   13 2
  16    8    9 1
  17    9   10 1
  18    9   16 2
  19   10   11 1
  20   10   21 2
  21   11   12 am
  22   11   22 1
  23   12   34 2
  24   13   14 1
  25   13   20 1
  26   14   15 am
  27   14   19 2
  28   15   16 1
  29   15   18 1
  30   16   17 1
  31   17   27 1
  32   17   56 1
  33   18   57 1
  34   18   58 1
  35   18   59 1
  36   20   60 1
  37   20   61 1
  38   20   62 1
  39   21   63 1
  40   21   64 1
  41   22   41 ar
  42   22   45 ar
  43   23   24 am
  44   23   65 1
  45   24   25 1
  46   24   26 2
  47   25   36 ar
  48   25   40 ar
  49   27   28 ar
  50   27   32 ar
  51   28   29 ar
  52   28   66 1
  53   29   30 ar
  54   29   67 1
  55   30   31 ar
  56   30   35 1
  57   31   32 ar
  58   31   68 1
  59   32   33 1
  60   35   50 1
  61   35   51 1
  62   35   69 1
  63   36   37 ar
  64   36   70 1
  65   37   38 ar
  66   37   48 1
  67   38   39 ar
  68   38   46 1
  69   39   40 ar
  70   39   47 1
  71   40   71 1
  72   41   42 ar
  73   41   72 1
  74   42   43 ar
  75   42   73 1
  76   43   44 ar
  77   43   49 1
  78   44   45 ar
  79   44   74 1
  80   45   75 1
  81   48   76 1
  82   49   77 1
  83   50   51 1
  84   50   78 1
  85   50   79 1
  86   51   80 1
  87   51   81 1

#	End of record

