#	Name: ASD01917154
#	Creating user name:	WinNT
#	Creation time:	15. 06. 2019 20:08

#	Modifying user name:	WinNT
#	Modification time:	15. 06. 2019 20:08

#	Program:	/corina/corina34_cracker 3.40 0067  02.08.2006

@<TRIPOS>MOLECULE
ASD01917154
  56   60    0    0    0
SMALL
NO_CHARGES


@<TRIPOS>ATOM
   1 C1            -0.0169     1.3086     0.0936 C.2     
   2 N2             0.0002     0.0195    -0.1693 N.2     
   3 N3            -1.3358    -0.4130    -0.1796 N.pl3   
   4 C4            -2.0928     0.6769     0.0858 C.2     
   5 N5            -1.2851     1.7026     0.2527 N.2     
   6 C6             1.1776     2.1824     0.2023 C.ar    
   7 C7             1.0280     3.5383     0.4864 C.ar    
   8 C8             2.4524     1.6482     0.0262 C.ar    
   9 C9             3.5604     2.4642     0.1281 C.ar    
  10 C10            3.4067     3.8129     0.4051 C.ar    
  11 C11            2.1413     4.3471     0.5866 C.ar    
  12 F12            4.4942     4.6083     0.5044 F       
  13 C13           -1.8152    -1.7746    -0.4292 C.3     
  14 C14           -1.8516    -2.5401     0.8684 C.2     
  15 N15           -2.2631    -3.8234     0.8825 N.am    
  16 O16           -1.5105    -2.0013     1.9001 O.2     
  17 C17           -2.3062    -4.5887     2.1378 C.3     
  18 C18           -3.6934    -5.2258     2.2721 C.3     
  19 N19           -3.9917    -6.0018     1.0610 N.3     
  20 C20           -4.0533    -5.1366    -0.1246 C.3     
  21 C21           -2.6866    -4.4940    -0.3562 C.3     
  22 C22           -5.1686    -6.7261     1.2108 C.ar    
  23 N23           -5.8477    -6.6473     2.3446 N.ar    
  24 C24           -6.9691    -7.3185     2.5275 C.ar    
  25 C25           -7.4767    -8.1327     1.5353 C.ar    
  26 C26           -6.7946    -8.2431     0.3306 C.ar    
  27 C27           -5.6254    -7.5231     0.1657 C.ar    
  28 C28           -3.5695     0.7088     0.1774 C.ar    
  29 C29           -4.2539     1.9165     0.0397 C.ar    
  30 C30           -5.6308     1.9396     0.1257 C.ar    
  31 C31           -6.3325     0.7684     0.3485 C.ar    
  32 C32           -5.6596    -0.4324     0.4864 C.ar    
  33 C33           -4.2832    -0.4696     0.3962 C.ar    
  34 H34            0.0419     3.9556     0.6277 H       
  35 H35            2.5731     0.5968    -0.1894 H       
  36 H36            4.5488     2.0508    -0.0079 H       
  37 H37            2.0259     5.3991     0.8020 H       
  38 H38           -2.8176    -1.7344    -0.8555 H       
  39 H39           -1.1433    -2.2742    -1.1270 H       
  40 H40           -1.5453    -5.3690     2.1172 H       
  41 H41           -2.1269    -3.9207     2.9802 H       
  42 H42           -3.7082    -5.8855     3.1396 H       
  43 H43           -4.4423    -4.4436     2.3966 H       
  44 H44           -4.3291    -5.7316    -0.9952 H       
  45 H45           -4.7972    -4.3557     0.0333 H       
  46 H46           -2.7569    -3.7649    -1.1634 H       
  47 H47           -1.9596    -5.2633    -0.6161 H       
  48 H48           -7.4964    -7.2298     3.4659 H       
  49 H49           -8.3949    -8.6788     1.6943 H       
  50 H50           -7.1709    -8.8739    -0.4612 H       
  51 H51           -5.0699    -7.5853    -0.7584 H       
  52 H52           -3.7071     2.8316    -0.1335 H       
  53 H53           -6.1618     2.8740     0.0193 H       
  54 H54           -7.4102     0.7917     0.4154 H       
  55 H55           -6.2130    -1.3433     0.6608 H       
  56 H56           -3.7590    -1.4077     0.5040 H       
@<TRIPOS>BOND
   1    1    2 2
   2    1    6 1
   3    1    5 1
   4    2    3 1
   5    3    4 1
   6    3   13 1
   7    4    5 2
   8    4   28 1
   9    6    7 ar
  10    6    8 ar
  11    7   11 ar
  12    7   34 1
  13    8    9 ar
  14    8   35 1
  15    9   10 ar
  16    9   36 1
  17   10   11 ar
  18   10   12 1
  19   11   37 1
  20   13   14 1
  21   13   38 1
  22   13   39 1
  23   14   15 am
  24   14   16 2
  25   15   17 1
  26   15   21 1
  27   17   18 1
  28   17   40 1
  29   17   41 1
  30   18   19 1
  31   18   42 1
  32   18   43 1
  33   19   20 1
  34   19   22 1
  35   20   21 1
  36   20   44 1
  37   20   45 1
  38   21   46 1
  39   21   47 1
  40   22   23 ar
  41   22   27 ar
  42   23   24 ar
  43   24   25 ar
  44   24   48 1
  45   25   26 ar
  46   25   49 1
  47   26   27 ar
  48   26   50 1
  49   27   51 1
  50   28   29 ar
  51   28   33 ar
  52   29   30 ar
  53   29   52 1
  54   30   31 ar
  55   30   53 1
  56   31   32 ar
  57   31   54 1
  58   32   33 ar
  59   32   55 1
  60   33   56 1

#	End of record

