#	Name: ASD01911417
#	Creating user name:	WinNT
#	Creation time:	15. 06. 2019 19:57

#	Modifying user name:	WinNT
#	Modification time:	15. 06. 2019 19:57

#	Program:	/corina/corina34_cracker 3.40 0067  02.08.2006

@<TRIPOS>MOLECULE
ASD01911417
  37   38    0    0    0
SMALL
NO_CHARGES


@<TRIPOS>ATOM
   1 N1            -0.0169     1.3965     0.0097 N.2     
   2 N2             0.0021    -0.0041     0.0020 N.pl3   
   3 C3             1.2284     1.8226     0.0001 C.2     
   4 C4             2.0722     0.6950    -0.0140 C.2     
   5 C5             1.2909    -0.4070    -0.0125 C.2     
   6 C6             1.7727    -1.8348    -0.0243 C.3     
   7 C7             1.6661     3.2408     0.0036 C.ar    
   8 C8             3.0187     3.5548    -0.1133 C.ar    
   9 C9            -1.1724    -0.8798     0.0093 C.3     
  10 C10           -1.5891    -1.1729    -1.4090 C.2     
  11 O11           -2.6495    -1.9606    -1.6477 O.3     
  12 O12           -0.9688    -0.6990    -2.3312 O.2     
  13 C13            3.4212     4.8744    -0.1096 C.ar    
  14 C14            2.4827     5.8868     0.0101 C.ar    
  15 C15            1.1372     5.5790     0.1269 C.ar    
  16 C16            0.7253     4.2619     0.1179 C.ar    
  17 F17            2.8811     7.1777     0.0132 F       
  18 C18            3.0473    -1.9360    -0.8645 C.3     
  19 C19            2.0687    -2.2850     1.4077 C.3     
  20 C20            0.1211     6.6842     0.2577 C.3     
  21 H21            3.1521     0.7089    -0.0246 H       
  22 H22            1.0022    -2.4747    -0.4544 H       
  23 H23            3.7509     2.7664    -0.2062 H       
  24 H24           -0.9266    -1.8130     0.5160 H       
  25 H25           -1.9905    -0.3861     0.5337 H       
  26 H26           -2.8785    -2.1198    -2.5736 H       
  27 H27            4.4693     5.1187    -0.1997 H       
  28 H28           -0.3240     4.0227     0.2090 H       
  29 H29            3.8178    -1.2961    -0.4344 H       
  30 H30            3.3958    -2.9688    -0.8731 H       
  31 H31            2.8364    -1.6153    -1.8847 H       
  32 H32            2.4173    -3.3178     1.3991 H       
  33 H33            2.8392    -1.6451     1.8378 H       
  34 H34            1.1607    -2.2130     2.0063 H       
  35 H35           -0.2201     6.9833    -0.7334 H       
  36 H36           -0.7277     6.3300     0.8427 H       
  37 H37            0.5762     7.5388     0.7585 H       
@<TRIPOS>BOND
   1    1    2 1
   2    1    3 2
   3    2    9 1
   4    2    5 1
   5    3    4 1
   6    3    7 1
   7    4    5 2
   8    4   21 1
   9    5    6 1
  10    6   18 1
  11    6   19 1
  12    6   22 1
  13    7    8 ar
  14    7   16 ar
  15    8   13 ar
  16    8   23 1
  17    9   10 1
  18    9   24 1
  19    9   25 1
  20   10   11 1
  21   10   12 2
  22   11   26 1
  23   13   14 ar
  24   13   27 1
  25   14   15 ar
  26   14   17 1
  27   15   16 ar
  28   15   20 1
  29   16   28 1
  30   18   29 1
  31   18   30 1
  32   18   31 1
  33   19   32 1
  34   19   33 1
  35   19   34 1
  36   20   35 1
  37   20   36 1
  38   20   37 1

#	End of record

