#	Name: ASD01900413
#	Creating user name:	WinNT
#	Creation time:	15. 06. 2019 19:51

#	Modifying user name:	WinNT
#	Modification time:	15. 06. 2019 19:51

#	Program:	/corina/corina34_cracker 3.40 0067  02.08.2006

@<TRIPOS>MOLECULE
ASD01900413
  33   35    0    0    0
SMALL
NO_CHARGES


@<TRIPOS>ATOM
   1 N1            -0.0162     1.3436     0.0094 N.am    
   2 C2            -0.1462     0.0021     0.0233 C.2     
   3 O3             0.8383    -0.7051    -0.0718 O.2     
   4 N4            -1.3675    -0.5553     0.1425 N.am    
   5 C5            -2.7576    -2.6937     0.2795 C.ar    
   6 C6            -2.4074    -4.0571     0.2462 C.ar    
   7 C7            -3.4143    -5.0171     0.3401 C.ar    
   8 C8            -4.7201    -4.5846     0.4625 C.ar    
   9 C9            -4.9931    -3.2232     0.4886 C.ar    
  10 N10           -4.0328    -2.3314     0.3986 N.ar    
  11 N11           -0.5309    -2.8179     0.0709 N.2     
  12 N12           -1.0449    -4.1179     0.1186 N.pl3   
  13 C13           -1.5025    -1.9492     0.1568 C.2     
  14 C14            1.2585     1.9235    -0.0005 C.ar    
  15 C15            1.4800     3.1038    -0.6978 C.ar    
  16 C16            2.7376     3.6743    -0.7059 C.ar    
  17 C17            3.7775     3.0701    -0.0193 C.ar    
  18 C18            3.5588     1.8933     0.6765 C.ar    
  19 C19            2.3011     1.3222     0.6915 C.ar    
  20 C20            2.9786     4.9549    -1.4628 C.3     
  21 F21            5.0072     3.6295    -0.0288 F       
  22 H22           -0.8055     1.9073     0.0023 H       
  23 H23           -2.1528     0.0088     0.2183 H       
  24 H24           -3.1793    -6.0710     0.3173 H       
  25 H25           -5.5247    -5.3012     0.5372 H       
  26 H26           -6.0163    -2.8908     0.5841 H       
  27 H27           -0.5203    -4.9323     0.0692 H       
  28 H28            0.6694     3.5751    -1.2336 H       
  29 H29            4.3711     1.4236     1.2114 H       
  30 H30            2.1299     0.4064     1.2378 H       
  31 H31            2.7965     5.8052    -0.8056 H       
  32 H32            4.0104     4.9811    -1.8134 H       
  33 H33            2.3033     5.0047    -2.3170 H       
@<TRIPOS>BOND
   1    1    2 am
   2    1   14 1
   3    1   22 1
   4    2    3 2
   5    2    4 am
   6    4   13 1
   7    4   23 1
   8    5    6 ar
   9    5   10 ar
  10    5   13 1
  11    6    7 ar
  12    6   12 1
  13    7    8 ar
  14    7   24 1
  15    8    9 ar
  16    8   25 1
  17    9   10 ar
  18    9   26 1
  19   11   12 1
  20   11   13 2
  21   12   27 1
  22   14   15 ar
  23   14   19 ar
  24   15   16 ar
  25   15   28 1
  26   16   17 ar
  27   16   20 1
  28   17   18 ar
  29   17   21 1
  30   18   19 ar
  31   18   29 1
  32   19   30 1
  33   20   31 1
  34   20   32 1
  35   20   33 1

#	End of record

