#	Name: ASD04882186
#	Creating user name:	WinNT
#	Creation time:	15. 06. 2019 20:54

#	Modifying user name:	WinNT
#	Modification time:	15. 06. 2019 20:54

#	Program:	/corina/corina34_cracker 3.40 0067  02.08.2006

@<TRIPOS>MOLECULE
ASD04882186
  78   82    0    0    0
SMALL
NO_CHARGES


@<TRIPOS>ATOM
   1 C1            -1.5050     2.4510    -1.1048 C.2     
   2 C2            -1.2803     1.0021    -1.0900 C.2     
   3 N3            -0.1144     0.5056    -0.6311 N.am    
   4 C4             0.0609    -0.8797    -0.5180 C.ar    
   5 C5             1.3267    -1.4422    -0.7047 C.ar    
   6 C6             1.5019    -2.8168    -0.5932 C.ar    
   7 C7             0.4296    -3.6291    -0.2980 C.ar    
   8 C8            -0.8389    -3.0732    -0.1100 C.ar    
   9 C9            -1.0167    -1.6909    -0.2159 C.ar    
  10 N10            2.4136    -0.6247    -1.0034 N.3     
  11 C11            2.2725    -0.0279    -2.3389 C.3     
  12 C12            3.6771    -1.3669    -0.8922 C.3     
  13 C13            4.8485    -0.4161    -1.1495 C.3     
  14 N14            4.7074     0.1807    -2.4850 N.3     
  15 C15            3.4439     0.9229    -2.5962 C.3     
  16 C16            5.7977     1.0007    -2.7846 C.ar    
  17 C17            6.5969     0.7215    -3.8856 C.ar    
  18 C18            6.0818     2.1009    -1.9851 C.ar    
  19 C19            7.1605     2.9095    -2.2840 C.ar    
  20 C20            7.9574     2.6255    -3.3782 C.ar    
  21 C21            7.6743     1.5345    -4.1790 C.ar    
  22 C22           -1.9874    -3.9436     0.2058 C.2     
  23 N23           -1.8138    -5.2758     0.3131 N.am    
  24 O24           -3.0906    -3.4591     0.3692 O.2     
  25 O25           -2.1468     0.2477    -1.4921 O.2     
  26 C26            6.2892    -0.4675    -4.7590 C.3     
  27 C27           -2.9543    -6.1402     0.6267 C.3     
  28 C28           -2.4885    -7.5962     0.6903 C.3     
  29 C29           -3.6993    -8.5109     0.8857 C.3     
  30 N30           -3.2637    -9.9135     0.8526 N.3     
  31 C31           -4.3958   -10.8244     1.1024 C.3     
  32 C32           -4.4839   -11.7853    -0.1019 C.3     
  33 C33           -3.0515   -11.7338    -0.6955 C.3     
  34 C34           -2.6671   -10.2523    -0.4570 C.3     
  35 O35           -0.6324     3.3928    -0.6904 O.3     
  36 C36           -2.6318     3.0838    -1.5459 C.2     
  37 C37           -2.4137     4.4602    -1.3776 C.2     
  38 C38           -1.1776     4.6056    -0.8514 C.2     
  39 C39           -4.3521    -8.2114     2.2366 C.3     
  40 H40            0.6034     1.1074    -0.3792 H       
  41 H41            2.4810    -3.2487    -0.7388 H       
  42 H42            0.5690    -4.6966    -0.2121 H       
  43 H43           -1.9957    -1.2584    -0.0708 H       
  44 H44            2.2721    -0.8164    -3.0914 H       
  45 H45            1.3356     0.5266    -2.3923 H       
  46 H46            3.7642    -1.7886     0.1092 H       
  47 H47            3.6927    -2.1706    -1.6282 H       
  48 H48            4.8489     0.3725    -0.3970 H       
  49 H49            5.7854    -0.9706    -1.0961 H       
  50 H50            3.3568     1.3446    -3.5975 H       
  51 H51            3.4284     1.7267    -1.8601 H       
  52 H52            5.4595     2.3236    -1.1309 H       
  53 H53            7.3819     3.7648    -1.6629 H       
  54 H54            8.8000     3.2600    -3.6102 H       
  55 H55            8.2986     1.3155    -5.0326 H       
  56 H56           -0.9338    -5.6623     0.1828 H       
  57 H57            5.6108    -0.1661    -5.5572 H       
  58 H58            7.2137    -0.8488    -5.1925 H       
  59 H59            5.8204    -1.2474    -4.1590 H       
  60 H60           -3.3754    -5.8511     1.5896 H       
  61 H61           -3.7137    -6.0352    -0.1482 H       
  62 H62           -1.9826    -7.8567    -0.2394 H       
  63 H63           -1.8000    -7.7212     1.5260 H       
  64 H64           -4.4199    -8.3354     0.0870 H       
  65 H65           -4.2210   -11.3911     2.0170 H       
  66 H66           -5.3198   -10.2526     1.1889 H       
  67 H67           -4.7283   -12.7951     0.2279 H       
  68 H68           -5.2148   -11.4281    -0.8273 H       
  69 H69           -2.3810   -12.4029    -0.1562 H       
  70 H70           -3.0614   -11.9681    -1.7600 H       
  71 H71           -3.0867    -9.6205    -1.2400 H       
  72 H72           -1.5832   -10.1427    -0.4200 H       
  73 H73           -3.5188     2.6160    -1.9468 H       
  74 H74           -3.1031     5.2539    -1.6249 H       
  75 H75           -0.7069     5.5449    -0.6015 H       
  76 H76           -4.6753    -7.1707     2.2611 H       
  77 H77           -5.2146    -8.8631     2.3758 H       
  78 H78           -3.6314    -8.3870     3.0353 H       
@<TRIPOS>BOND
   1    1    2 1
   2    1   35 1
   3    1   36 2
   4    2    3 am
   5    2   25 2
   6    3    4 1
   7    3   40 1
   8    4    5 ar
   9    4    9 ar
  10    5    6 ar
  11    5   10 1
  12    6    7 ar
  13    6   41 1
  14    7    8 ar
  15    7   42 1
  16    8    9 ar
  17    8   22 1
  18    9   43 1
  19   10   11 1
  20   10   12 1
  21   11   15 1
  22   11   44 1
  23   11   45 1
  24   12   13 1
  25   12   46 1
  26   12   47 1
  27   13   14 1
  28   13   48 1
  29   13   49 1
  30   14   15 1
  31   14   16 1
  32   15   50 1
  33   15   51 1
  34   16   17 ar
  35   16   18 ar
  36   17   26 1
  37   17   21 ar
  38   18   19 ar
  39   18   52 1
  40   19   20 ar
  41   19   53 1
  42   20   21 ar
  43   20   54 1
  44   21   55 1
  45   22   23 am
  46   22   24 2
  47   23   27 1
  48   23   56 1
  49   26   57 1
  50   26   58 1
  51   26   59 1
  52   27   28 1
  53   27   60 1
  54   27   61 1
  55   28   29 1
  56   28   62 1
  57   28   63 1
  58   29   30 1
  59   29   39 1
  60   29   64 1
  61   30   31 1
  62   30   34 1
  63   31   32 1
  64   31   65 1
  65   31   66 1
  66   32   33 1
  67   32   67 1
  68   32   68 1
  69   33   34 1
  70   33   69 1
  71   33   70 1
  72   34   71 1
  73   34   72 1
  74   35   38 1
  75   36   37 1
  76   36   73 1
  77   37   38 2
  78   37   74 1
  79   38   75 1
  80   39   76 1
  81   39   77 1
  82   39   78 1

#	End of record

