#	Name: ASD09740667
#	Creating user name:	WinNT
#	Creation time:	15. 06. 2019 21:23

#	Modifying user name:	WinNT
#	Modification time:	15. 06. 2019 21:23

#	Program:	/corina/corina34_cracker 3.40 0067  02.08.2006

@<TRIPOS>MOLECULE
ASD09740667
  36   37    0    0    0
SMALL
NO_CHARGES


@<TRIPOS>ATOM
   1 C1            -0.0162     1.3436     0.0094 C.2     
   2 N2             0.0021    -0.0041     0.0020 N.am    
   3 O3             1.0277     1.9654     0.0028 O.2     
   4 O4            -1.1912     2.0008     0.0186 O.3     
   5 C5             1.2806    -0.7192    -0.0140 C.3     
   6 C6             1.1133    -2.1289     0.5918 C.3     
   7 C7             0.8196    -2.9919    -0.6537 C.3     
   8 C8             1.4696    -2.2575    -1.8067 C.ar    
   9 C9             1.8028    -2.6973    -3.0780 C.ar    
  10 C10            2.3989    -1.8344    -3.9779 C.ar    
  11 C11            2.6634    -0.5286    -3.6095 C.ar    
  12 C12            2.3316    -0.0888    -2.3431 C.ar    
  13 C13            1.7344    -0.9518    -1.4392 C.ar    
  14 Br14           1.4412    -4.4835    -3.5825 Br      
  15 C15           -1.1349     3.4517     0.0262 C.3     
  16 C16           -0.4003     3.9401    -1.2239 C.3     
  17 C17           -2.5565     4.0172     0.0360 C.3     
  18 C18           -0.3885     3.9266     1.2745 C.3     
  19 H19           -0.8313    -0.5005     0.0073 H       
  20 H20            2.0356    -0.1581     0.5365 H       
  21 H21            2.0328    -2.4527     1.0795 H       
  22 H22            0.2746    -2.1546     1.2876 H       
  23 H23            1.2599    -3.9825    -0.5399 H       
  24 H24           -0.2556    -3.0713    -0.8139 H       
  25 H25            2.6581    -2.1800    -4.9677 H       
  26 H26            3.1295     0.1471    -4.3114 H       
  27 H27            2.5390     0.9315    -2.0563 H       
  28 H28           -0.9321     3.6018    -2.1132 H       
  29 H29           -0.3581     5.0293    -1.2182 H       
  30 H30            0.6125     3.5373    -1.2309 H       
  31 H31           -3.0798     3.6692     0.9266 H       
  32 H32           -2.5142     5.1064     0.0417 H       
  33 H33           -3.0883     3.6789    -0.8533 H       
  34 H34            0.6243     3.5237     1.2675 H       
  35 H35           -0.3462     5.0157     1.2802 H       
  36 H36           -0.9118     3.5786     2.1651 H       
@<TRIPOS>BOND
   1    1    2 am
   2    1    3 2
   3    1    4 1
   4    2    5 1
   5    2   19 1
   6    4   15 1
   7    5    6 1
   8    5   13 1
   9    5   20 1
  10    6    7 1
  11    6   21 1
  12    6   22 1
  13    7    8 1
  14    7   23 1
  15    7   24 1
  16    8    9 ar
  17    8   13 ar
  18    9   10 ar
  19    9   14 1
  20   10   11 ar
  21   10   25 1
  22   11   12 ar
  23   11   26 1
  24   12   13 ar
  25   12   27 1
  26   15   16 1
  27   15   18 1
  28   15   17 1
  29   16   28 1
  30   16   29 1
  31   16   30 1
  32   17   31 1
  33   17   32 1
  34   17   33 1
  35   18   34 1
  36   18   35 1
  37   18   36 1

#	End of record

