#	Name: ASD01912922
#	Creating user name:	WinNT
#	Creation time:	15. 06. 2019 20:00

#	Modifying user name:	WinNT
#	Modification time:	15. 06. 2019 20:00

#	Program:	/corina/corina34_cracker 3.40 0067  02.08.2006

@<TRIPOS>MOLECULE
ASD01912922
  40   44    0    0    0
SMALL
NO_CHARGES


@<TRIPOS>ATOM
   1 C1            -0.1010     1.1869     0.6498 C.2     
   2 N2             0.0086     0.0098    -0.0447 N.pl3   
   3 C3            -1.1089    -0.4932    -0.6939 C.2     
   4 C4            -2.2732     0.1419    -0.6544 C.2     
   5 N5            -2.4358     1.3306     0.0312 N.am    
   6 C6            -1.3911     1.8770     0.6927 C.2     
   7 C7             1.1447     1.4495     1.1887 C.2     
   8 C8             1.9511     0.3896     0.7774 C.2     
   9 N9             1.2164    -0.4216     0.0538 N.2     
  10 O10           -1.5180     2.9239     1.3020 O.2     
  11 C11           -3.6825     1.9657     0.0452 C.ar    
  12 C12            3.4105     0.2074     1.1060 C.3     
  13 O13            3.8564     1.2979     1.9148 O.3     
  14 C14            5.1591     1.2868     2.3018 C.ar    
  15 C15            5.6591     2.3145     3.0882 C.ar    
  16 C16            6.9837     2.3009     3.4802 C.ar    
  17 C17            7.8109     1.2641     3.0895 C.ar    
  18 C18            7.3151     0.2389     2.3053 C.ar    
  19 C19            5.9897     0.2448     1.9158 C.ar    
  20 C20           -4.5748     1.6600     1.0271 C.ar    
  21 C21           -3.9837     2.9067    -0.9481 C.ar    
  22 C22           -5.1752     3.5482    -0.9770 C.ar    
  23 C23           -6.1529     3.2733     0.0130 C.ar    
  24 C24           -5.8403     2.2961     1.0530 C.ar    
  25 N25           -7.3688     3.7645     0.1902 N.2     
  26 S26           -8.0144     3.1086     1.4439 S.3     
  27 N27           -6.8599     2.1652     1.8869 N.2     
  28 H28           -1.0297    -1.4199    -1.2428 H       
  29 H29           -3.1193    -0.2830    -1.1741 H       
  30 H30            1.4315     2.2945     1.7971 H       
  31 H31            3.5466    -0.7275     1.6496 H       
  32 H32            3.9899     0.1788     0.1832 H       
  33 H33            5.0134     3.1246     3.3934 H       
  34 H34            7.3735     3.1009     4.0921 H       
  35 H35            8.8462     1.2553     3.3970 H       
  36 H36            7.9634    -0.5694     2.0008 H       
  37 H37            5.6028    -0.5563     1.3033 H       
  38 H38           -4.3184     0.9338     1.7843 H       
  39 H39           -3.2481     3.1255    -1.7080 H       
  40 H40           -5.3813     4.2698    -1.7538 H       
@<TRIPOS>BOND
   1    1    2 1
   2    1    7 2
   3    1    6 1
   4    2    3 1
   5    2    9 1
   6    3    4 2
   7    3   28 1
   8    4    5 1
   9    4   29 1
  10    5    6 am
  11    5   11 1
  12    6   10 2
  13    7    8 1
  14    7   30 1
  15    8    9 2
  16    8   12 1
  17   11   21 ar
  18   11   20 ar
  19   12   13 1
  20   12   31 1
  21   12   32 1
  22   13   14 1
  23   14   15 ar
  24   14   19 ar
  25   15   16 ar
  26   15   33 1
  27   16   17 ar
  28   16   34 1
  29   17   18 ar
  30   17   35 1
  31   18   19 ar
  32   18   36 1
  33   19   37 1
  34   20   24 ar
  35   20   38 1
  36   21   22 ar
  37   21   39 1
  38   22   23 ar
  39   22   40 1
  40   23   24 ar
  41   23   25 2
  42   24   27 2
  43   25   26 1
  44   26   27 1

#	End of record

