#	Name: ASD03332162
#	Creating user name:	WinNT
#	Creation time:	15. 06. 2019 20:40

#	Modifying user name:	WinNT
#	Modification time:	15. 06. 2019 20:40

#	Program:	/corina/corina34_cracker 3.40 0067  02.08.2006

@<TRIPOS>MOLECULE
ASD03332162
  57   60    0    0    0
SMALL
NO_CHARGES


@<TRIPOS>ATOM
   1 C1            -0.0159     1.3549     0.0392 C.2     
   2 N2             0.0042    -0.0047     0.0502 N.pl3   
   3 C3             1.3085    -0.3957    -0.0353 C.2     
   4 N4             2.0648     0.6763    -0.0775 N.2     
   5 C5             1.2778     1.7739    -0.0301 C.2     
   6 C6             1.7375     3.1737    -0.0505 C.2     
   7 O7             0.9281     4.0803    -0.0030 O.2     
   8 N8             3.0548     3.4494    -0.1216 N.am    
   9 C9             3.5119     4.8412    -0.1418 C.3     
  10 C10            4.8777     4.9196    -0.8268 C.3     
  11 C11            3.6285     5.3522     1.2711 C.2     
  12 O12            3.3566     4.6254     2.2032 O.2     
  13 C13           -1.1729    -0.8716     0.1537 C.3     
  14 C14           -2.2427    -0.3847    -0.8286 C.3     
  15 C15           -3.1086     0.6797    -0.1625 C.3     
  16 N16           -2.3237     1.4885     0.7722 N.3     
  17 C17           -1.2510     2.2171     0.0789 C.3     
  18 C18            1.7897    -1.7934    -0.0740 C.ar    
  19 C19            2.6929    -4.4132    -0.1465 C.ar    
  20 C20            3.1819    -3.4910    -1.0564 C.ar    
  21 C21            2.7356    -2.1833    -1.0256 C.ar    
  22 N22            4.0349     6.6169     1.4989 N.am    
  23 C23           -3.1861     2.4105     1.5233 C.3     
  24 C24            1.3050    -2.7266     0.8436 C.ar    
  25 C25            1.7575    -4.0294     0.8035 C.ar    
  26 F26            3.1326    -5.6902    -0.1805 F       
  27 F27            3.2127    -1.2840    -1.9139 F       
  28 Cl28           1.1547    -5.1910     1.9441 Cl      
  29 C29            4.7370     4.5251    -2.2745 C.2     
  30 N30            4.2073     3.3793    -2.6529 N.2     
  31 C31            5.1339     5.3110    -3.2798 C.2     
  32 S32            4.7876     4.4745    -4.7914 S.3     
  33 C33            4.1396     3.1529    -3.9214 C.2     
  34 C34            4.1482     7.1136     2.8725 C.3     
  35 H35            3.7003     2.7264    -0.1594 H       
  36 H36            2.7945     5.4512    -0.6908 H       
  37 H37            5.2580     5.9391    -0.7634 H       
  38 H38            5.5722     4.2412    -0.3313 H       
  39 H39           -0.8932    -1.8964    -0.0905 H       
  40 H40           -1.5661    -0.8323     1.1696 H       
  41 H41           -1.7602     0.0395    -1.7091 H       
  42 H42           -2.8684    -1.2252    -1.1289 H       
  43 H43           -3.5309     1.3287    -0.9297 H       
  44 H44           -3.9197     0.1933     0.3793 H       
  45 H45           -1.0332     3.1414     0.6141 H       
  46 H46           -1.5663     2.4492    -0.9383 H       
  47 H47            3.9132    -3.7939    -1.7910 H       
  48 H48            4.2523     7.1981     0.7535 H       
  49 H49           -3.9230     1.8398     2.0884 H       
  50 H50           -2.5778     2.9990     2.2100 H       
  51 H51           -3.6976     3.0769     0.8286 H       
  52 H52            0.5771    -2.4294     1.5840 H       
  53 H53            5.5870     6.2866    -3.1829 H       
  54 H54            3.7330     2.2580    -4.3688 H       
  55 H55            4.4883     8.1491     2.8574 H       
  56 H56            3.1752     7.0578     3.3605 H       
  57 H57            4.8656     6.5036     3.4214 H       
@<TRIPOS>BOND
   1    1    2 1
   2    1    5 2
   3    1   17 1
   4    2    3 1
   5    2   13 1
   6    3    4 2
   7    3   18 1
   8    4    5 1
   9    5    6 1
  10    6    7 2
  11    6    8 am
  12    8    9 1
  13    8   35 1
  14    9   10 1
  15    9   11 1
  16    9   36 1
  17   10   29 1
  18   10   37 1
  19   10   38 1
  20   11   12 2
  21   11   22 am
  22   13   14 1
  23   13   39 1
  24   13   40 1
  25   14   15 1
  26   14   41 1
  27   14   42 1
  28   15   16 1
  29   15   43 1
  30   15   44 1
  31   16   17 1
  32   16   23 1
  33   17   45 1
  34   17   46 1
  35   18   24 ar
  36   18   21 ar
  37   19   20 ar
  38   19   26 1
  39   19   25 ar
  40   20   21 ar
  41   20   47 1
  42   21   27 1
  43   22   34 1
  44   22   48 1
  45   23   49 1
  46   23   50 1
  47   23   51 1
  48   24   25 ar
  49   24   52 1
  50   25   28 1
  51   29   30 1
  52   29   31 2
  53   30   33 2
  54   31   32 1
  55   31   53 1
  56   32   33 1
  57   33   54 1
  58   34   55 1
  59   34   56 1
  60   34   57 1

#	End of record

