#	Name: ASD01910717
#	Creating user name:	WinNT
#	Creation time:	15. 06. 2019 19:56

#	Modifying user name:	WinNT
#	Modification time:	15. 06. 2019 19:56

#	Program:	/corina/corina34_cracker 3.40 0067  02.08.2006

@<TRIPOS>MOLECULE
ASD01910717
  52   55    0    0    0
SMALL
NO_CHARGES


@<TRIPOS>ATOM
   1 C1            12.4811    -1.9058     4.2720 C.ar    
   2 C2            13.1010    -2.0695     3.0406 C.ar    
   3 C3            12.3916    -1.7500     1.8966 C.ar    
   4 C4            11.0888    -1.2781     2.0182 C.ar    
   5 N5            10.5324    -1.1352     3.2114 N.ar    
   6 C6            11.1849    -1.4325     4.3190 C.ar    
   7 N7            10.3645    -0.9533     0.8771 N.3     
   8 C8             9.0190    -0.4775     1.2253 C.3     
   9 C9             8.3208     0.0388    -0.0373 C.3     
  10 N10            8.3616    -1.0182    -1.0591 N.am    
  11 C11            9.6585    -1.6411    -1.3646 C.3     
  12 C12           10.3040    -2.0913    -0.0498 C.3     
  13 C13            7.2404    -1.4055    -1.6989 C.2     
  14 C14            7.3210    -2.3785    -2.8064 C.ar    
  15 O15            6.1625    -0.9536    -1.3641 O.2     
  16 C16            6.3462    -3.3728    -2.9362 C.ar    
  17 C17            6.4165    -4.2836    -3.9679 C.ar    
  18 C18            7.4552    -4.2216    -4.8857 C.ar    
  19 C19            8.4402    -3.2274    -4.7656 C.ar    
  20 C20            8.3660    -2.3027    -3.7263 C.ar    
  21 C21            9.5137    -3.1614    -5.7111 C.1     
  22 C22           10.3937    -3.1072    -6.4862 C.1     
  23 C23           11.4672    -3.0412    -7.4317 C.ar    
  24 O24            7.5197    -5.1212    -5.8984 O.3     
  25 C25           12.4430    -2.0491    -7.3052 C.ar    
  26 C26           13.4731    -1.9992    -8.2268 C.ar    
  27 C27           13.4974    -2.9412    -9.2464 C.ar    
  28 C28           12.4995    -3.8966    -9.3132 C.ar    
  29 N29           11.5313    -3.9279    -8.4210 N.ar    
  30 C30            6.4848    -6.1048    -5.9593 C.3     
  31 H31           13.0059    -2.1503     5.1837 H       
  32 H32           14.1143    -2.4378     2.9771 H       
  33 H33           12.8434    -1.8650     0.9224 H       
  34 H34           10.6990    -1.3032     5.2749 H       
  35 H35            8.4416    -1.2985     1.6504 H       
  36 H36            9.0958     0.3293     1.9542 H       
  37 H37            7.2844     0.2861     0.1926 H       
  38 H38            8.8384     0.9245    -0.4058 H       
  39 H39            9.5065    -2.5045    -2.0123 H       
  40 H40           10.3047    -0.9170    -1.8607 H       
  41 H41           11.3128    -2.4549    -0.2456 H       
  42 H42            9.7087    -2.8898     0.3930 H       
  43 H43            5.5353    -3.4272    -2.2249 H       
  44 H44            5.6603    -5.0489    -4.0623 H       
  45 H45            9.1198    -1.5355    -3.6284 H       
  46 H46           12.3934    -1.3314    -6.4997 H       
  47 H47           14.2416    -1.2437    -8.1551 H       
  48 H48           14.2887    -2.9279    -9.9813 H       
  49 H49           12.5170    -4.6301   -10.1057 H       
  50 H50            6.6558    -6.7596    -6.8138 H       
  51 H51            6.4899    -6.6948    -5.0428 H       
  52 H52            5.5195    -5.6104    -6.0678 H       
@<TRIPOS>BOND
   1    1    2 ar
   2    1    6 ar
   3    1   31 1
   4    2    3 ar
   5    2   32 1
   6    3    4 ar
   7    3   33 1
   8    4    5 ar
   9    4    7 1
  10    5    6 ar
  11    6   34 1
  12    7    8 1
  13    7   12 1
  14    8    9 1
  15    8   35 1
  16    8   36 1
  17    9   10 1
  18    9   37 1
  19    9   38 1
  20   10   11 1
  21   10   13 am
  22   11   12 1
  23   11   39 1
  24   11   40 1
  25   12   41 1
  26   12   42 1
  27   13   14 1
  28   13   15 2
  29   14   16 ar
  30   14   20 ar
  31   16   17 ar
  32   16   43 1
  33   17   18 ar
  34   17   44 1
  35   18   19 ar
  36   18   24 1
  37   19   20 ar
  38   19   21 1
  39   20   45 1
  40   21   22 3
  41   22   23 1
  42   23   25 ar
  43   23   29 ar
  44   24   30 1
  45   25   26 ar
  46   25   46 1
  47   26   27 ar
  48   26   47 1
  49   27   28 ar
  50   27   48 1
  51   28   29 ar
  52   28   49 1
  53   30   50 1
  54   30   51 1
  55   30   52 1

#	End of record

