#	Name: ASD01918122
#	Creating user name:	WinNT
#	Creation time:	15. 06. 2019 20:10

#	Modifying user name:	WinNT
#	Modification time:	15. 06. 2019 20:10

#	Program:	/corina/corina34_cracker 3.40 0067  02.08.2006

@<TRIPOS>MOLECULE
ASD01918122
  36   38    0    0    0
SMALL
NO_CHARGES


@<TRIPOS>ATOM
   1 N1            -0.0169     1.3990     0.0085 N.am    
   2 C2             0.0023    -0.0040     0.0047 C.2     
   3 C3             2.4474    -0.0827    -0.5723 C.3     
   4 C4             2.1938     1.3587    -1.0220 C.3     
   5 C5             1.2956     2.0725    -0.0060 C.3     
   6 S6            -1.3337    -1.0967     0.3180 S.3     
   7 C7            -0.3011    -2.4387     0.0793 C.2     
   8 N8             0.8912    -2.0411    -0.2002 N.2     
   9 C9             1.1122    -0.7375    -0.2549 C.2     
  10 C10           -0.7259    -3.8809     0.1818 C.3     
  11 O11           -0.5537    -4.3338     1.5261 O.3     
  12 C12           -1.1718     2.0936     0.0191 C.2     
  13 O13           -2.2315     1.5100    -0.0694 O.2     
  14 C14           -1.1467     3.5955     0.1408 C.3     
  15 C15           -0.8930    -5.6228     1.7912 C.ar    
  16 C16           -0.7513    -6.1286     3.0752 C.ar    
  17 C17           -1.0969    -7.4393     3.3420 C.ar    
  18 C18           -1.5835    -8.2468     2.3307 C.ar    
  19 C19           -1.7252    -7.7452     1.0500 C.ar    
  20 C20           -1.3869    -6.4334     0.7794 C.ar    
  21 H21            2.9435    -0.6330    -1.3717 H       
  22 H22            3.0755    -0.0825     0.3186 H       
  23 H23            3.1444     1.8866    -1.0984 H       
  24 H24            1.7051     1.3533    -1.9963 H       
  25 H25            1.1698     3.1156    -0.2963 H       
  26 H26            1.7469     2.0185     0.9847 H       
  27 H27           -1.7747    -3.9717    -0.1007 H       
  28 H28           -0.1156    -4.4879    -0.4871 H       
  29 H29           -1.0100     4.0378    -0.8460 H       
  30 H30           -2.0885     3.9413     0.5668 H       
  31 H31           -0.3233     3.8937     0.7898 H       
  32 H32           -0.3709    -5.4984     3.8654 H       
  33 H33           -0.9864    -7.8336     4.3414 H       
  34 H34           -1.8531    -9.2712     2.5413 H       
  35 H35           -2.1049    -8.3781     0.2616 H       
  36 H36           -1.4978    -6.0420    -0.2210 H       
@<TRIPOS>BOND
   1    1    2 1
   2    1    5 1
   3    1   12 am
   4    2    6 1
   5    2    9 2
   6    3    4 1
   7    3    9 1
   8    3   21 1
   9    3   22 1
  10    4    5 1
  11    4   23 1
  12    4   24 1
  13    5   25 1
  14    5   26 1
  15    6    7 1
  16    7    8 2
  17    7   10 1
  18    8    9 1
  19   10   11 1
  20   10   27 1
  21   10   28 1
  22   11   15 1
  23   12   13 2
  24   12   14 1
  25   14   29 1
  26   14   30 1
  27   14   31 1
  28   15   16 ar
  29   15   20 ar
  30   16   17 ar
  31   16   32 1
  32   17   18 ar
  33   17   33 1
  34   18   19 ar
  35   18   34 1
  36   19   20 ar
  37   19   35 1
  38   20   36 1

#	End of record

