#	Name: ASD01810618
#	Creating user name:	WinNT
#	Creation time:	15. 06. 2019 19:24

#	Modifying user name:	WinNT
#	Modification time:	15. 06. 2019 19:24

#	Program:	/corina/corina34_cracker 3.40 0067  02.08.2006

@<TRIPOS>MOLECULE
ASD01810618
  26   27    0    0    0
SMALL
NO_CHARGES


@<TRIPOS>ATOM
   1 N1            -0.0153     1.2757     0.0091 N.pl3   
   2 N2             0.0021    -0.0041     0.0020 N.2     
   3 C3             1.0988    -0.7288    -0.0124 C.2     
   4 C4             2.4109    -0.0536    -0.0213 C.2     
   5 C5             2.3837     1.4196    -0.0131 C.ar    
   6 C6             3.5510     2.1831    -0.0197 C.ar    
   7 C7             3.4584     3.5610    -0.0110 C.ar    
   8 C8             2.2165     4.1793     0.0046 C.ar    
   9 C9             1.0559     3.4364     0.0118 C.ar    
  10 C10            1.1222     2.0465     0.0023 C.ar    
  11 C11            1.0188    -2.1996    -0.0191 C.2     
  12 O12            2.0366    -2.8635    -0.0324 O.2     
  13 O13           -0.1832    -2.8092    -0.0104 O.3     
  14 O14            3.4569    -0.6786    -0.0343 O.2     
  15 F15            4.7602     1.5807    -0.0340 F       
  16 C16           -0.1861    -4.2611    -0.0177 C.3     
  17 C17           -1.6295    -4.7683    -0.0061 C.3     
  18 H18           -0.8753     1.7243     0.0155 H       
  19 H19            4.3570     4.1601    -0.0160 H       
  20 H20            2.1585     5.2577     0.0117 H       
  21 H21            0.0964     3.9320     0.0247 H       
  22 H22            0.3183    -4.6210    -0.9145 H       
  23 H23            0.3357    -4.6300     0.8654 H       
  24 H24           -2.1339    -4.4085     0.8907 H       
  25 H25           -2.1513    -4.3995    -0.8892 H       
  26 H26           -1.6317    -5.8583    -0.0116 H       
@<TRIPOS>BOND
   1    1    2 1
   2    1   10 1
   3    1   18 1
   4    2    3 2
   5    3    4 1
   6    3   11 1
   7    4    5 1
   8    4   14 2
   9    5    6 ar
  10    5   10 ar
  11    6    7 ar
  12    6   15 1
  13    7    8 ar
  14    7   19 1
  15    8    9 ar
  16    8   20 1
  17    9   10 ar
  18    9   21 1
  19   11   12 2
  20   11   13 1
  21   13   16 1
  22   16   17 1
  23   16   22 1
  24   16   23 1
  25   17   24 1
  26   17   25 1
  27   17   26 1

#	End of record

