#	Name: ASD05720312
#	Creating user name:	WinNT
#	Creation time:	15. 06. 2019 21:02

#	Modifying user name:	WinNT
#	Modification time:	15. 06. 2019 21:02

#	Program:	/corina/corina34_cracker 3.40 0067  02.08.2006

@<TRIPOS>MOLECULE
ASD05720312
  58   62    0    0    0
SMALL
NO_CHARGES


@<TRIPOS>ATOM
   1 C1             0.0527    -0.5954    -1.6348 C.3     
   2 C2             0.0921    -2.0169    -1.0702 C.3     
   3 C3             0.8027    -2.0080     0.2847 C.3     
   4 C4             2.2313    -1.4897     0.1080 C.3     
   5 C5             2.1920    -0.0682    -0.4566 C.3     
   6 C6             1.4813    -0.0771    -1.8116 C.3     
   7 O7            -0.6110    -0.6037    -2.9003 O.3     
   8 C8             6.4966    -2.8777     2.8291 C.ar    
   9 N9             5.6196    -2.2406     3.5869 N.ar    
  10 C10            4.4699    -1.8072     3.0767 C.ar    
  11 C11            4.1995    -2.0380     1.7120 C.ar    
  12 C12            5.1646    -2.7219     0.9441 C.ar    
  13 N13            6.2851    -3.1171     1.5414 N.ar    
  14 N14            3.3921    -1.1386     3.5780 N.pl3   
  15 N15            2.4678    -0.9573     2.5415 N.2     
  16 C16            2.9312    -1.4810     1.4425 C.2     
  17 C17            4.9361    -2.9929    -0.4921 C.ar    
  18 C18            4.5959    -1.9495    -1.3552 C.ar    
  19 C19            4.3841    -2.2046    -2.6920 C.ar    
  20 C20            4.5084    -3.5005    -3.1824 C.ar    
  21 C21            4.8468    -4.5421    -2.3245 C.ar    
  22 C22            5.0658    -4.2916    -0.9880 C.ar    
  23 N23            4.2932    -3.7558    -4.5351 N.pl3   
  24 N24            7.6827    -3.3061     3.4000 N.3     
  25 C25            7.4657    -3.7752     4.7763 C.3     
  26 C26            8.7882    -4.2939     5.3473 C.3     
  27 O27            9.7711    -3.2574     5.2771 O.3     
  28 C28           10.0079    -2.7774     3.9509 C.3     
  29 C29            8.6979    -2.2433     3.3657 C.3     
  30 C30            6.4324    -4.9035     4.7746 C.3     
  31 H31           -0.4869     0.0544    -0.9458 H       
  32 H32           -0.9257    -2.3861    -0.9443 H       
  33 H33            0.6316    -2.6667    -1.7592 H       
  34 H34            0.2631    -1.3582     0.9737 H       
  35 H35            0.8307    -3.0207     0.6870 H       
  36 H36            2.7709    -2.1395    -0.5810 H       
  37 H37            1.6524     0.5815     0.2324 H       
  38 H38            3.2098     0.3010    -0.5826 H       
  39 H39            2.0209    -0.7269    -2.5006 H       
  40 H40            1.4533     0.9355    -2.2138 H       
  41 H41           -0.6727     0.2663    -3.3178 H       
  42 H42            3.2842    -0.8400     4.4946 H       
  43 H43            4.4985    -0.9434    -0.9749 H       
  44 H44            4.1210    -1.3979    -3.3601 H       
  45 H45            4.9420    -5.5474    -2.7077 H       
  46 H46            5.3328    -5.0999    -0.3232 H       
  47 H47            4.0569    -3.0302    -5.1339 H       
  48 H48            4.3797    -4.6590    -4.8779 H       
  49 H49            7.1034    -2.9499     5.3892 H       
  50 H50            8.6447    -4.5897     6.3865 H       
  51 H51            9.1233    -5.1532     4.7665 H       
  52 H52           10.7467    -1.9765     3.9802 H       
  53 H53           10.3785    -3.5926     3.3295 H       
  54 H54            8.8611    -1.9290     2.3349 H       
  55 H55            8.3552    -1.3935     3.9561 H       
  56 H56            6.7484    -5.6845     4.0829 H       
  57 H57            6.3473    -5.3198     5.7783 H       
  58 H58            5.4654    -4.5101     4.4612 H       
@<TRIPOS>BOND
   1    1    2 1
   2    1    6 1
   3    1    7 1
   4    1   31 1
   5    2    3 1
   6    2   32 1
   7    2   33 1
   8    3    4 1
   9    3   34 1
  10    3   35 1
  11    4    5 1
  12    4   16 1
  13    4   36 1
  14    5    6 1
  15    5   37 1
  16    5   38 1
  17    6   39 1
  18    6   40 1
  19    7   41 1
  20    8    9 ar
  21    8   13 ar
  22    8   24 1
  23    9   10 ar
  24   10   11 ar
  25   10   14 1
  26   11   12 ar
  27   11   16 1
  28   12   13 ar
  29   12   17 1
  30   14   15 1
  31   14   42 1
  32   15   16 2
  33   17   18 ar
  34   17   22 ar
  35   18   19 ar
  36   18   43 1
  37   19   20 ar
  38   19   44 1
  39   20   21 ar
  40   20   23 1
  41   21   22 ar
  42   21   45 1
  43   22   46 1
  44   23   47 1
  45   23   48 1
  46   24   25 1
  47   24   29 1
  48   25   26 1
  49   25   30 1
  50   25   49 1
  51   26   27 1
  52   26   50 1
  53   26   51 1
  54   27   28 1
  55   28   29 1
  56   28   52 1
  57   28   53 1
  58   29   54 1
  59   29   55 1
  60   30   56 1
  61   30   57 1
  62   30   58 1

#	End of record

