#	Name: ASD01816611
#	Creating user name:	WinNT
#	Creation time:	15. 06. 2019 19:35

#	Modifying user name:	WinNT
#	Modification time:	15. 06. 2019 19:35

#	Program:	/corina/corina34_cracker 3.40 0067  02.08.2006

@<TRIPOS>MOLECULE
ASD01816611
  42   46    0    0    0
SMALL
NO_CHARGES


@<TRIPOS>ATOM
   1 C1            -0.0167     1.3813     0.0096 C.ar    
   2 C2             0.0021    -0.0041     0.0020 C.ar    
   3 C3             1.1984    -0.6909    -0.0126 C.ar    
   4 C4             2.4015     0.0059    -0.0198 C.ar    
   5 C5             2.3790     1.4106    -0.0126 C.ar    
   6 C6             1.1663     2.0916     0.0022 C.ar    
   7 N7             3.6053    -0.6772    -0.0336 N.pl3   
   8 C8             4.7970    -0.0585    -0.0406 C.2     
   9 C9             4.9000     1.3103    -0.0351 C.2     
  10 C10            3.6670     2.1302    -0.0205 C.2     
  11 C11            5.9971     2.2730    -0.0402 C.2     
  12 N12            5.4245     3.4961    -0.0298 N.am    
  13 N13            4.0323     3.3799    -0.0181 N.2     
  14 O14            7.1913     2.0230    -0.0515 O.2     
  15 C15            6.1246     4.7052    -0.0303 C.ar    
  16 C16            6.4731     5.3299    -1.2276 C.ar    
  17 C17            6.4882     5.3220     1.1666 C.ar    
  18 C18            7.1796     6.5165     1.1227 C.ar    
  19 N19            7.4954     7.0734    -0.0312 N.ar    
  20 C20            7.1650     6.5241    -1.1846 C.ar    
  21 C21            3.5779    -2.1419    -0.0402 C.3     
  22 C22            3.5561    -2.6375    -1.4632 C.ar    
  23 C23            4.7411    -2.9832    -2.0842 C.ar    
  24 C24            4.7101    -3.4381    -3.3938 C.ar    
  25 C25            3.4828    -3.5284    -4.0320 C.ar    
  26 C26            2.3389    -3.1646    -3.3466 C.ar    
  27 N27            2.4057    -2.7412    -2.0997 N.ar    
  28 Cl28           6.0434     4.6158    -2.7505 Cl      
  29 Cl29           6.0769     4.5986     2.6901 Cl      
  30 H30           -0.9602     1.9068     0.0169 H       
  31 H31           -0.9289    -0.5515     0.0079 H       
  32 H32            1.2004    -1.7709    -0.0181 H       
  33 H33            1.1506     3.1715     0.0081 H       
  34 H34            5.6983    -0.6536    -0.0506 H       
  35 H35            7.4653     7.0013     2.0445 H       
  36 H36            7.4431     7.0125    -2.1069 H       
  37 H37            4.4654    -2.5242     0.4641 H       
  38 H38            2.6858    -2.4910     0.4798 H       
  39 H39            5.6796    -2.8999    -1.5563 H       
  40 H40            5.6205    -3.7152    -3.9045 H       
  41 H41            3.4212    -3.8783    -5.0519 H       
  42 H42            1.3789    -3.2317    -3.8369 H       
@<TRIPOS>BOND
   1    1    2 ar
   2    1    6 ar
   3    1   30 1
   4    2    3 ar
   5    2   31 1
   6    3    4 ar
   7    3   32 1
   8    4    5 ar
   9    4    7 1
  10    5    6 ar
  11    5   10 1
  12    6   33 1
  13    7    8 1
  14    7   21 1
  15    8    9 2
  16    8   34 1
  17    9   10 1
  18    9   11 1
  19   10   13 2
  20   11   12 am
  21   11   14 2
  22   12   13 1
  23   12   15 1
  24   15   16 ar
  25   15   17 ar
  26   16   28 1
  27   16   20 ar
  28   17   18 ar
  29   17   29 1
  30   18   19 ar
  31   18   35 1
  32   19   20 ar
  33   20   36 1
  34   21   22 1
  35   21   37 1
  36   21   38 1
  37   22   23 ar
  38   22   27 ar
  39   23   24 ar
  40   23   39 1
  41   24   25 ar
  42   24   40 1
  43   25   26 ar
  44   25   41 1
  45   26   27 ar
  46   26   42 1

#	End of record

