#	Name: ASD01885710
#	Creating user name:	WinNT
#	Creation time:	15. 06. 2019 19:50

#	Modifying user name:	WinNT
#	Modification time:	15. 06. 2019 19:50

#	Program:	/corina/corina34_cracker 3.40 0067  02.08.2006

@<TRIPOS>MOLECULE
ASD01885710
  54   57    0    0    0
SMALL
NO_CHARGES


@<TRIPOS>ATOM
   1 C1            -0.5707     0.8452     0.5502 C.ar    
   2 C2            -1.8877     1.3655     0.6273 C.ar    
   3 C3            -2.0681     2.7638     0.7775 C.ar    
   4 C4            -0.9341     3.5619     0.8421 C.ar    
   5 C5             0.3312     2.9698     0.7583 C.ar    
   6 N6             0.4777     1.6664     0.6131 N.ar    
   7 C7            -0.3933    -0.5435     0.4011 C.ar    
   8 C8            -1.4799    -1.3601     0.3389 C.ar    
   9 C9            -2.7718    -0.8447     0.4205 C.ar    
  10 C10           -2.9827     0.4951     0.5539 C.ar    
  11 C11           -3.4233     3.3542     0.8623 C.ar    
  12 C12           -3.7363     4.2433     1.8909 C.ar    
  13 C13           -5.0000     4.7906     1.9655 C.ar    
  14 C14           -4.3898     3.0277    -0.0895 C.ar    
  15 C15            1.5373     3.8301     0.8215 C.2     
  16 N16            2.7638     3.2788     0.7310 N.am    
  17 O17            1.4198     5.0320     0.9549 O.2     
  18 C18           -1.2827    -2.8469     0.1918 C.3     
  19 N19           -1.2531    -3.1972    -1.2304 N.pl3   
  20 C20           -5.9584     4.4586     1.0209 C.ar    
  21 C21           -5.6506     3.5803    -0.0062 C.ar    
  22 F22           -7.1950     4.9969     1.0985 F       
  23 C23           -0.1448    -3.2452    -2.0322 C.2     
  24 C24           -0.5664    -3.6085    -3.2585 C.2     
  25 N25           -1.8960    -3.7777    -3.2069 N.2     
  26 C26           -2.3135    -3.5387    -1.9937 C.2     
  27 C27            0.3031    -3.7927    -4.4755 C.3     
  28 C28            1.2610    -4.9634    -4.2455 C.3     
  29 C29           -0.5775    -4.0856    -5.6919 C.3     
  30 C30           -1.4838    -2.8840    -5.9666 C.3     
  31 F31            0.5279    -6.1067    -3.9099 F       
  32 F32            1.9919    -5.2043    -5.4137 F       
  33 F33            2.1389    -4.6496    -3.2025 F       
  34 O34            1.0555    -2.6003    -4.7082 O.3     
  35 H35           -1.0277     4.6318     0.9559 H       
  36 H36            0.6015    -0.9590     0.3359 H       
  37 H37           -3.6170    -1.5157     0.3771 H       
  38 H38           -3.9890     0.8829     0.6122 H       
  39 H39           -2.9903     4.5024     2.6276 H       
  40 H40           -5.2434     5.4787     2.7616 H       
  41 H41           -4.1508     2.3437    -0.8903 H       
  42 H42            2.8575     2.3192     0.6245 H       
  43 H43            3.5528     3.8415     0.7724 H       
  44 H44           -0.3403    -3.1361     0.6569 H       
  45 H45           -2.1044    -3.3723     0.6784 H       
  46 H46           -6.4007     3.3249    -0.7401 H       
  47 H47            0.8723    -3.0321    -1.7381 H       
  48 H48           -3.3382    -3.5971    -1.6577 H       
  49 H49            0.0536    -4.2710    -6.5611 H       
  50 H50           -1.1902    -4.9650    -5.4935 H       
  51 H51           -2.0712    -3.0700    -6.8658 H       
  52 H52           -2.1534    -2.7328    -5.1200 H       
  53 H53           -0.8724    -1.9930    -6.1100 H       
  54 H54            0.5115    -1.8158    -4.8622 H       
@<TRIPOS>BOND
   1    1    7 ar
   2    1    6 ar
   3    1    2 ar
   4    2    3 ar
   5    2   10 ar
   6    3   11 1
   7    3    4 ar
   8    4    5 ar
   9    4   35 1
  10    5   15 1
  11    5    6 ar
  12    7    8 ar
  13    7   36 1
  14    8    9 ar
  15    8   18 1
  16    9   10 ar
  17    9   37 1
  18   10   38 1
  19   11   12 ar
  20   11   14 ar
  21   12   13 ar
  22   12   39 1
  23   13   20 ar
  24   13   40 1
  25   14   21 ar
  26   14   41 1
  27   15   16 am
  28   15   17 2
  29   16   42 1
  30   16   43 1
  31   18   19 1
  32   18   44 1
  33   18   45 1
  34   19   23 1
  35   19   26 1
  36   20   21 ar
  37   20   22 1
  38   21   46 1
  39   23   24 2
  40   23   47 1
  41   24   25 1
  42   24   27 1
  43   25   26 2
  44   26   48 1
  45   27   28 1
  46   27   29 1
  47   27   34 1
  48   28   31 1
  49   28   32 1
  50   28   33 1
  51   29   30 1
  52   29   49 1
  53   29   50 1
  54   30   51 1
  55   30   52 1
  56   30   53 1
  57   34   54 1

#	End of record

