#	Name: ASD03082195
#	Creating user name:	WinNT
#	Creation time:	15. 06. 2019 20:27

#	Modifying user name:	WinNT
#	Modification time:	15. 06. 2019 20:27

#	Program:	/corina/corina34_cracker 3.40 0067  02.08.2006

@<TRIPOS>MOLECULE
ASD03082195
  53   56    0    0    0
SMALL
NO_CHARGES


@<TRIPOS>ATOM
   1 N1            -0.0622     1.2817    -0.0211 N.am    
   2 N2             0.0287    -0.1198    -0.0258 N.2     
   3 C3             1.3057    -0.4219    -0.0190 C.2     
   4 N4             2.0262     0.7033    -0.0104 N.2     
   5 C5             1.2234     1.7467    -0.0115 C.2     
   6 N6             1.8283    -1.7137    -0.0202 N.pl3   
   7 C7             0.9731    -2.8135     0.0894 C.ar    
   8 C8             1.3573    -4.0477    -0.4201 C.ar    
   9 C9             0.5101    -5.1325    -0.3097 C.ar    
  10 C10           -0.7200    -4.9913     0.3068 C.ar    
  11 C11           -1.1056    -3.7644     0.8145 C.ar    
  12 C12           -0.2605    -2.6767     0.7130 C.ar    
  13 C13            0.9259    -6.4715    -0.8620 C.3     
  14 F14            1.6011    -7.1946     0.1272 F       
  15 F15           -0.2093    -7.1822    -1.2662 F       
  16 F16            1.7721    -6.2808    -1.9597 F       
  17 C17            1.4654     5.3394    -1.0471 C.2     
  18 C18            1.3300     4.0293    -1.1622 C.2     
  19 C19            1.6374     3.1655    -0.0041 C.2     
  20 C20            2.2886     3.6647     1.0502 C.2     
  21 C21            2.7450     5.0957     1.1232 C.3     
  22 C22            1.9126     5.9999     0.2057 C.3     
  23 C23           -1.1899     2.0198    -0.0303 C.2     
  24 C24           -2.5308     1.3453    -0.1648 C.3     
  25 O25           -1.1258     3.2222     0.0693 O.2     
  26 O26           -3.5642     2.3322    -0.1485 O.3     
  27 C27           -4.8828     1.7951    -0.2707 C.3     
  28 C28           -5.9026     2.9352    -0.2414 C.3     
  29 C29           -7.3144     2.3602    -0.3723 C.3     
  30 O30            2.4305     5.5685     2.4577 O.3     
  31 C31            1.4685     6.6288     2.3132 C.3     
  32 O32            0.8103     6.4027     1.0428 O.3     
  33 H33            2.7856    -1.8495    -0.0970 H       
  34 H34            2.3173    -4.1585    -0.9022 H       
  35 H35           -1.3809    -5.8413     0.3915 H       
  36 H36           -2.0670    -3.6576     1.2950 H       
  37 H37           -0.5604    -1.7197     1.1138 H       
  38 H38            1.2445     5.9574    -1.9048 H       
  39 H39            0.9980     3.5950    -2.0936 H       
  40 H40            2.4959     3.0127     1.8858 H       
  41 H41            3.8087     5.1810     0.9008 H       
  42 H42            2.4954     6.8861    -0.0456 H       
  43 H43           -2.5683     0.7955    -1.1053 H       
  44 H44           -2.6750     0.6545     0.6659 H       
  45 H45           -4.9690     1.2546    -1.2134 H       
  46 H46           -5.0757     1.1136     0.5578 H       
  47 H47           -5.8163     3.4757     0.7012 H       
  48 H48           -5.7096     3.6167    -1.0699 H       
  49 H49           -7.4006     1.8198    -1.3149 H       
  50 H50           -7.5073     1.6787     0.4563 H       
  51 H51           -8.0409     3.1725    -0.3514 H       
  52 H52            0.7418     6.5893     3.1246 H       
  53 H53            1.9731     7.5950     2.3075 H       
@<TRIPOS>BOND
   1    1    2 1
   2    1    5 1
   3    1   23 am
   4    2    3 2
   5    3    4 1
   6    3    6 1
   7    4    5 2
   8    5   19 1
   9    6    7 1
  10    6   33 1
  11    7    8 ar
  12    7   12 ar
  13    8    9 ar
  14    8   34 1
  15    9   10 ar
  16    9   13 1
  17   10   11 ar
  18   10   35 1
  19   11   12 ar
  20   11   36 1
  21   12   37 1
  22   13   14 1
  23   13   15 1
  24   13   16 1
  25   17   18 2
  26   17   22 1
  27   17   38 1
  28   18   19 1
  29   18   39 1
  30   19   20 2
  31   20   21 1
  32   20   40 1
  33   21   22 1
  34   21   30 1
  35   21   41 1
  36   22   32 1
  37   22   42 1
  38   23   24 1
  39   23   25 2
  40   24   26 1
  41   24   43 1
  42   24   44 1
  43   26   27 1
  44   27   28 1
  45   27   45 1
  46   27   46 1
  47   28   29 1
  48   28   47 1
  49   28   48 1
  50   29   49 1
  51   29   50 1
  52   29   51 1
  53   30   31 1
  54   31   32 1
  55   31   52 1
  56   31   53 1

#	End of record

