#	Name: ASD03240009
#	Creating user name:	WinNT
#	Creation time:	15. 06. 2019 20:34

#	Modifying user name:	WinNT
#	Modification time:	15. 06. 2019 20:34

#	Program:	/corina/corina34_cracker 3.40 0067  02.08.2006

@<TRIPOS>MOLECULE
ASD03240009
  63   68    0    0    0
SMALL
NO_CHARGES


@<TRIPOS>ATOM
   1 C1            -0.0095     1.3721     0.2512 C.2     
   2 C2             0.0638     0.3601    -0.7313 C.2     
   3 N3             1.0503     1.6979     0.9485 N.2     
   4 C4             2.2188     1.0838     0.7477 C.2     
   5 C5             2.3317     0.0813    -0.2119 C.2     
   6 N6             1.2358    -0.2729    -0.9497 N.am    
   7 C7             3.6244    -0.5944    -0.4312 C.ar    
   8 C8             3.4022     1.4716     1.5503 C.ar    
   9 C9             3.7530     2.8155     1.6760 C.ar    
  10 C10            4.8562     3.1705     2.4249 C.ar    
  11 C11            5.6140     2.1964     3.0499 C.ar    
  12 C12            5.2713     0.8616     2.9285 C.ar    
  13 C13            4.1664     0.4947     2.1879 C.ar    
  14 C14            3.6913    -1.9900    -0.4584 C.ar    
  15 C15            4.9034    -2.6148    -0.6643 C.ar    
  16 C16            6.0515    -1.8633    -0.8438 C.ar    
  17 C17            5.9929    -0.4809    -0.8182 C.ar    
  18 C18            4.7870     0.1579    -0.6185 C.ar    
  19 C19            7.3722    -2.5537    -1.0679 C.3     
  20 N20            7.5775    -2.7626    -2.5074 N.3     
  21 C21            8.9473    -3.2141    -2.7835 C.3     
  22 C22            9.1686    -3.2810    -4.2963 C.3     
  23 C23            8.1574    -4.2516    -4.9126 C.3     
  24 C24            6.7398    -3.7855    -4.5695 C.3     
  25 C25            6.5890    -3.7039    -3.0488 C.3     
  26 N26            8.3261    -4.2758    -6.3677 N.am    
  27 C27            8.6478    -5.3945    -7.1326 C.ar    
  28 C28            8.7080    -4.9710    -8.4617 C.ar    
  29 N29            8.4211    -3.6080    -8.4632 N.am    
  30 C30            8.1910    -3.2215    -7.1942 C.2     
  31 C31            8.8919    -6.7231    -6.8195 C.ar    
  32 C32            9.1937    -7.6217    -7.8238 C.ar    
  33 C33            9.2535    -7.2017    -9.1417 C.ar    
  34 C34            9.0118    -5.8806    -9.4632 C.ar    
  35 O35            7.9117    -2.0894    -6.8460 O.2     
  36 O36           -0.9257     0.0598    -1.3780 O.2     
  37 H37           -0.9445     1.8838     0.4255 H       
  38 H38            1.3001    -0.9694    -1.6218 H       
  39 H39            3.1625     3.5767     1.1879 H       
  40 H40            5.1289     4.2109     2.5229 H       
  41 H41            6.4769     2.4790     3.6347 H       
  42 H42            5.8671     0.1055     3.4182 H       
  43 H43            3.8996    -0.5476     2.0941 H       
  44 H44            2.7962    -2.5777    -0.3180 H       
  45 H45            4.9568    -3.6933    -0.6852 H       
  46 H46            6.8929     0.0992    -0.9591 H       
  47 H47            4.7426     1.2368    -0.5991 H       
  48 H48            8.1774    -1.9348    -0.6721 H       
  49 H49            7.3698    -3.5169    -0.5576 H       
  50 H50            9.6564    -2.5129    -2.3434 H       
  51 H51            9.0982    -4.2028    -2.3503 H       
  52 H52            9.0315    -2.2897    -4.7284 H       
  53 H53           10.1804    -3.6310    -4.5010 H       
  54 H54            8.3197    -5.2513    -4.5096 H       
  55 H55            6.5645    -2.8022    -5.0059 H       
  56 H56            6.0163    -4.4960    -4.9694 H       
  57 H57            6.7508    -4.6904    -2.6143 H       
  58 H58            5.5852    -3.3586    -2.8014 H       
  59 H59            8.3888    -3.0355    -9.2456 H       
  60 H60            8.8466    -7.0543    -5.7926 H       
  61 H61            9.3843    -8.6565    -7.5801 H       
  62 H62            9.4901    -7.9103    -9.9216 H       
  63 H63            9.0589    -5.5567   -10.4924 H       
@<TRIPOS>BOND
   1    1    2 1
   2    1    3 2
   3    1   37 1
   4    2   36 2
   5    2    6 am
   6    3    4 1
   7    4    5 2
   8    4    8 1
   9    5    6 1
  10    5    7 1
  11    6   38 1
  12    7   14 ar
  13    7   18 ar
  14    8    9 ar
  15    8   13 ar
  16    9   10 ar
  17    9   39 1
  18   10   11 ar
  19   10   40 1
  20   11   12 ar
  21   11   41 1
  22   12   13 ar
  23   12   42 1
  24   13   43 1
  25   14   15 ar
  26   14   44 1
  27   15   16 ar
  28   15   45 1
  29   16   17 ar
  30   16   19 1
  31   17   18 ar
  32   17   46 1
  33   18   47 1
  34   19   20 1
  35   19   48 1
  36   19   49 1
  37   20   21 1
  38   20   25 1
  39   21   22 1
  40   21   50 1
  41   21   51 1
  42   22   23 1
  43   22   52 1
  44   22   53 1
  45   23   24 1
  46   23   26 1
  47   23   54 1
  48   24   25 1
  49   24   55 1
  50   24   56 1
  51   25   57 1
  52   25   58 1
  53   26   27 1
  54   26   30 am
  55   27   28 ar
  56   27   31 ar
  57   28   29 1
  58   28   34 ar
  59   29   30 am
  60   29   59 1
  61   30   35 2
  62   31   32 ar
  63   31   60 1
  64   32   33 ar
  65   32   61 1
  66   33   34 ar
  67   33   62 1
  68   34   63 1

#	End of record

