#	Name: ASD08070277
#	Creating user name:	WinNT
#	Creation time:	15. 06. 2019 21:14

#	Modifying user name:	WinNT
#	Modification time:	15. 06. 2019 21:14

#	Program:	/corina/corina34_cracker 3.40 0067  02.08.2006

@<TRIPOS>MOLECULE
ASD08070277
  45   47    0    0    0
SMALL
NO_CHARGES


@<TRIPOS>ATOM
   1 C1            -0.0050     1.4715     0.0284 C.2     
   2 C2             0.0084    -0.0041     0.0109 C.ar    
   3 C3             1.0011    -0.6920    -0.7017 C.ar    
   4 C4             1.0038    -2.0791    -0.7112 C.ar    
   5 C5             0.0321    -2.7778    -0.0217 C.ar    
   6 C6            -0.9498    -2.1018     0.6831 C.ar    
   7 C7            -0.9639    -0.7234     0.7084 C.ar    
   8 O8             0.9072     2.0938    -0.4806 O.2     
   9 N9            -1.0310     2.1294     0.6037 N.am    
  10 N10            1.9824     0.0162    -1.3991 N.pl3   
  11 C11            3.3322    -0.1251    -1.2396 C.2     
  12 C12            3.9473     0.7254    -2.0856 C.2     
  13 C13            2.9440     1.4178    -2.7941 C.2     
  14 C14            1.7525     0.9616    -2.3587 C.2     
  15 C15           -1.0442     3.5942     0.6211 C.3     
  16 C16           -2.2903     4.0771     1.3176 C.ar    
  17 C17           -2.3470     4.0944     2.7043 C.ar    
  18 C18           -3.4935     4.5387     3.3444 C.ar    
  19 C19           -4.5810     4.9647     2.5972 C.ar    
  20 C20           -4.5193     4.9455     1.2112 C.ar    
  21 C21           -3.3731     4.5074     0.5754 C.ar    
  22 O22           -5.7065     5.4004     3.2219 O.3     
  23 C23           -6.7878     5.8244     2.3894 C.3     
  24 O24           -1.2797     3.6758     3.4339 O.3     
  25 C25           -1.4083     3.7210     4.8564 C.3     
  26 H26            1.7662    -2.6134    -1.2585 H       
  27 H27            0.0379    -3.8577    -0.0326 H       
  28 H28           -1.7053    -2.6570     1.2191 H       
  29 H29           -1.7291    -0.2006     1.2631 H       
  30 H30           -1.7606     1.6330     1.0063 H       
  31 H31            3.8216    -0.8008    -0.5539 H       
  32 H32            5.0136     0.8534    -2.1995 H       
  33 H33            3.1014     2.1732    -3.5498 H       
  34 H34            0.7837     1.2882    -2.7068 H       
  35 H35           -0.1658     3.9592     1.1534 H       
  36 H36           -1.0312     3.9699    -0.4021 H       
  37 H37           -3.5396     4.5526     4.4233 H       
  38 H38           -5.3662     5.2773     0.6288 H       
  39 H39           -3.3255     4.4974    -0.5035 H       
  40 H40           -6.4604     6.6543     1.7632 H       
  41 H41           -7.1060     4.9956     1.7569 H       
  42 H42           -7.6217     6.1466     3.0129 H       
  43 H43           -1.5942     4.7476     5.1719 H       
  44 H44           -2.2407     3.0893     5.1662 H       
  45 H45           -0.4879     3.3606     5.3160 H       
@<TRIPOS>BOND
   1    1    2 1
   2    1    8 2
   3    1    9 am
   4    2    3 ar
   5    2    7 ar
   6    3    4 ar
   7    3   10 1
   8    4    5 ar
   9    4   26 1
  10    5    6 ar
  11    5   27 1
  12    6    7 ar
  13    6   28 1
  14    7   29 1
  15    9   15 1
  16    9   30 1
  17   10   11 1
  18   10   14 1
  19   11   12 2
  20   11   31 1
  21   12   13 1
  22   12   32 1
  23   13   14 2
  24   13   33 1
  25   14   34 1
  26   15   16 1
  27   15   35 1
  28   15   36 1
  29   16   17 ar
  30   16   21 ar
  31   17   18 ar
  32   17   24 1
  33   18   19 ar
  34   18   37 1
  35   19   20 ar
  36   19   22 1
  37   20   21 ar
  38   20   38 1
  39   21   39 1
  40   22   23 1
  41   23   40 1
  42   23   41 1
  43   23   42 1
  44   24   25 1
  45   25   43 1
  46   25   44 1
  47   25   45 1

#	End of record

