#	Name: ASD01150423
#	Creating user name:	WinNT
#	Creation time:	15. 06. 2019 19:04

#	Modifying user name:	WinNT
#	Modification time:	15. 06. 2019 19:04

#	Program:	/corina/corina34_cracker 3.40 0067  02.08.2006

@<TRIPOS>MOLECULE
ASD01150423
  42   44    0    0    0
SMALL
NO_CHARGES


@<TRIPOS>ATOM
   1 C1            -0.0167     1.3773     0.0096 C.ar    
   2 C2             0.0021    -0.0041     0.0020 C.ar    
   3 C3             1.2070    -0.6829    -0.0127 C.ar    
   4 C4             2.3991     0.0168    -0.0203 C.ar    
   5 C5             2.3896     1.4025    -0.0132 C.ar    
   6 C6             1.1760     2.0872     0.0020 C.ar    
   7 N7             1.1598     3.4873     0.0088 N.am    
   8 C8             0.4907     4.1378     0.9769 C.2     
   9 N9             0.4539     5.4828     1.0135 N.am    
  10 C10            1.0952     6.2024     0.0695 C.2     
  11 C11            1.8292     5.4973    -0.9917 C.2     
  12 N12            1.8452     4.1901    -0.9892 N.2     
  13 O13            1.0662     7.4188     0.0957 O.2     
  14 C14           -0.2836     6.1660     2.0792 C.3     
  15 O15           -0.0914     3.5001     1.8335 O.2     
  16 C16            0.6349     6.4104     3.2487 C.ar    
  17 C17            1.3656     7.5815     3.3200 C.ar    
  18 C18            2.2088     7.8075     4.3922 C.ar    
  19 C19            2.3219     6.8617     5.3945 C.ar    
  20 C20            1.5892     5.6875     5.3238 C.ar    
  21 C21            0.7417     5.4656     4.2522 C.ar    
  22 O22            2.4846     6.1934    -1.9568 O.3     
  23 C23            3.1733     5.4325    -2.9512 C.3     
  24 Cl24           3.3814     7.1447     6.7403 Cl      
  25 F25            1.6984     4.7623     6.3022 F       
  26 O26            3.5611     2.0920    -0.0207 O.3     
  27 C27            4.7659     1.3239    -0.0358 C.3     
  28 H28           -0.9591     1.9047     0.0169 H       
  29 H29           -0.9266    -0.5553     0.0079 H       
  30 H30            1.2166    -1.7629    -0.0178 H       
  31 H31            3.3381    -0.5166    -0.0314 H       
  32 H32           -0.6598     7.1190     1.7074 H       
  33 H33           -1.1203     5.5445     2.3981 H       
  34 H34            1.2781     8.3205     2.5374 H       
  35 H35            2.7795     8.7228     4.4466 H       
  36 H36            0.1702     4.5510     4.1960 H       
  37 H37            3.9303     4.8108    -2.4733 H       
  38 H38            2.4623     4.7975    -3.4798 H       
  39 H39            3.6525     6.1089    -3.6590 H       
  40 H40            4.8044     0.6908     0.8506 H       
  41 H41            4.7877     0.6998    -0.9292 H       
  42 H42            5.6247     1.9951    -0.0405 H       
@<TRIPOS>BOND
   1    1    2 ar
   2    1    6 ar
   3    1   28 1
   4    2    3 ar
   5    2   29 1
   6    3    4 ar
   7    3   30 1
   8    4    5 ar
   9    4   31 1
  10    5    6 ar
  11    5   26 1
  12    6    7 1
  13    7    8 am
  14    7   12 1
  15    8    9 am
  16    8   15 2
  17    9   10 am
  18    9   14 1
  19   10   11 1
  20   10   13 2
  21   11   12 2
  22   11   22 1
  23   14   16 1
  24   14   32 1
  25   14   33 1
  26   16   17 ar
  27   16   21 ar
  28   17   18 ar
  29   17   34 1
  30   18   19 ar
  31   18   35 1
  32   19   20 ar
  33   19   24 1
  34   20   21 ar
  35   20   25 1
  36   21   36 1
  37   22   23 1
  38   23   37 1
  39   23   38 1
  40   23   39 1
  41   26   27 1
  42   27   40 1
  43   27   41 1
  44   27   42 1

#	End of record

