#	Name: ASD08170008
#	Creating user name:	WinNT
#	Creation time:	15. 06. 2019 21:17

#	Modifying user name:	WinNT
#	Modification time:	15. 06. 2019 21:17

#	Program:	/corina/corina34_cracker 3.40 0067  02.08.2006

@<TRIPOS>MOLECULE
ASD08170008
  64   68    0    0    0
SMALL
NO_CHARGES


@<TRIPOS>ATOM
   1 C1            -0.0168     1.3862     0.0097 C.ar    
   2 C2             0.0021    -0.0041     0.0020 C.ar    
   3 C3             1.1854    -0.6764    -0.0623 C.ar    
   4 C4             2.3902     0.0403    -0.1310 C.ar    
   5 C5             2.3794     1.4538     0.0093 C.ar    
   6 C6             1.1455     2.1045     0.0024 C.ar    
   7 C7             3.6018    -0.6296    -0.3899 C.ar    
   8 C8             4.7755     0.0502    -0.4175 C.ar    
   9 C9             4.8256     1.4174    -0.1501 C.ar    
  10 C10            3.6609     2.1441     0.1511 C.ar    
  11 N11            6.0373     2.0922    -0.2223 N.pl3   
  12 C12            6.2675     3.1758     0.7382 C.3     
  13 C13            5.0157     4.0152     0.8495 C.2     
  14 C14            3.7844     3.4750     0.6253 C.2     
  15 C15            5.1701     5.3725     1.1725 C.2     
  16 C16            3.9711     6.2663     1.3335 C.3     
  17 C17            2.8177     5.4260     1.8867 C.3     
  18 C18            2.5440     4.2823     0.9096 C.3     
  19 C19            3.1787     4.8709     3.2644 C.3     
  20 C20            1.5642     6.3015     2.0049 C.3     
  21 O21            6.2843     5.8335     1.3228 O.2     
  22 C22            6.6034     2.5902     2.0856 C.ar    
  23 C23            7.5856     3.1727     2.8655 C.ar    
  24 C24            7.8958     2.6386     4.1007 C.ar    
  25 C25            7.2200     1.5150     4.5594 C.ar    
  26 C26            6.2339     0.9324     3.7734 C.ar    
  27 C27            5.9247     1.4750     2.5416 C.ar    
  28 N28            7.5316     0.9720     5.8080 N.pl3   
  29 C29            7.5606    -1.4733     5.8419 C.3     
  30 C30            6.8178    -0.2131     6.2901 C.3     
  31 C31            7.9432     2.6494     7.5395 C.3     
  32 C32            8.5722     1.5874     6.6354 C.3     
  33 H33           -0.9626     1.9076     0.0260 H       
  34 H34           -0.9249    -0.5536     0.0498 H       
  35 H35            1.1960    -1.7564    -0.0604 H       
  36 H36            1.0760     3.1782    -0.0763 H       
  37 H37            3.5945    -1.6936    -0.5720 H       
  38 H38            5.6888    -0.4766    -0.6518 H       
  39 H39            6.7045     1.8545    -0.8829 H       
  40 H40            7.0943     3.7975     0.3960 H       
  41 H41            4.2040     7.0739     2.0265 H       
  42 H42            3.6912     6.6821     0.3658 H       
  43 H43            2.1452     4.6841    -0.0191 H       
  44 H44            1.8025     3.6281     1.3838 H       
  45 H45            3.3773     5.6963     3.9480 H       
  46 H46            2.3489     4.2754     3.6451 H       
  47 H47            4.0674     4.2451     3.1825 H       
  48 H48            1.2960     6.6867     1.0211 H       
  49 H49            0.7407     5.7058     2.3988 H       
  50 H50            1.7650     7.1344     2.6788 H       
  51 H51            8.1109     4.0461     2.5081 H       
  52 H52            8.6633     3.0938     4.7092 H       
  53 H53            5.7066     0.0588     4.1271 H       
  54 H54            5.1579     1.0228     1.9301 H       
  55 H55            7.0296    -2.3550     6.2007 H       
  56 H56            7.6111    -1.4975     4.7534 H       
  57 H57            8.5704    -1.4653     6.2524 H       
  58 H58            6.7673    -0.1889     7.3787 H       
  59 H59            5.8081    -0.2211     5.8797 H       
  60 H60            7.4677     3.4141     6.9253 H       
  61 H61            7.1963     2.1833     8.1822 H       
  62 H62            8.7174     3.1073     8.1552 H       
  63 H63            9.0477     0.8227     7.2496 H       
  64 H64            9.3191     2.0535     5.9927 H       
@<TRIPOS>BOND
   1    1    2 ar
   2    1    6 ar
   3    1   33 1
   4    2    3 ar
   5    2   34 1
   6    3    4 ar
   7    3   35 1
   8    4    5 ar
   9    4    7 ar
  10    5    6 ar
  11    5   10 ar
  12    6   36 1
  13    7    8 ar
  14    7   37 1
  15    8    9 ar
  16    8   38 1
  17    9   10 ar
  18    9   11 1
  19   10   14 1
  20   11   12 1
  21   11   39 1
  22   12   13 1
  23   12   22 1
  24   12   40 1
  25   13   14 2
  26   13   15 1
  27   14   18 1
  28   15   16 1
  29   15   21 2
  30   16   17 1
  31   16   41 1
  32   16   42 1
  33   17   18 1
  34   17   19 1
  35   17   20 1
  36   18   43 1
  37   18   44 1
  38   19   45 1
  39   19   46 1
  40   19   47 1
  41   20   48 1
  42   20   49 1
  43   20   50 1
  44   22   23 ar
  45   22   27 ar
  46   23   24 ar
  47   23   51 1
  48   24   25 ar
  49   24   52 1
  50   25   26 ar
  51   25   28 1
  52   26   27 ar
  53   26   53 1
  54   27   54 1
  55   28   30 1
  56   28   32 1
  57   29   30 1
  58   29   55 1
  59   29   56 1
  60   29   57 1
  61   30   58 1
  62   30   59 1
  63   31   32 1
  64   31   60 1
  65   31   61 1
  66   31   62 1
  67   32   63 1
  68   32   64 1

#	End of record

