#	Name: ASD01230049
#	Creating user name:	WinNT
#	Creation time:	15. 06. 2019 19:11

#	Modifying user name:	WinNT
#	Modification time:	15. 06. 2019 19:11

#	Program:	/corina/corina34_cracker 3.40 0067  02.08.2006

@<TRIPOS>MOLECULE
ASD01230049
  26   27    0    0    0
SMALL
NO_CHARGES


@<TRIPOS>ATOM
   1 C1            -0.0823     1.3447     0.1366 C.ar    
   2 C2            -0.0216    -0.0407     0.1068 C.ar    
   3 S3             1.4100     2.2886     0.0177 S.o2    
   4 N4             2.6189     1.1367     0.0841 N.am    
   5 C5             2.2984    -0.1339    -0.6002 C.3     
   6 N6             1.1626    -0.7639     0.0598 N.3     
   7 O7             1.4427     2.8475    -1.2884 O.2     
   8 O8             1.5075     3.0595     1.2074 O.2     
   9 C9            -1.2182    -0.7612     0.1680 C.ar    
  10 C10           -2.4256    -0.1061     0.2723 C.ar    
  11 C11           -2.4691     1.2761     0.3183 C.ar    
  12 C12           -1.2909     1.9994     0.2501 C.ar    
  13 C13            0.9328    -2.1166    -0.4649 C.3     
  14 C14            0.4058    -2.0250    -1.8983 C.3     
  15 Cl15          -3.9915     2.0980     0.4612 Cl      
  16 F16            0.1870    -3.3132    -2.3980 F       
  17 H17            3.4637     1.2897     0.5355 H       
  18 H18            2.0482     0.0671    -1.6419 H       
  19 H19            3.1606    -0.7992    -0.5546 H       
  20 H20           -1.1959    -1.8404     0.1327 H       
  21 H21           -3.3430    -0.6742     0.3181 H       
  22 H22           -1.3181     3.0784     0.2855 H       
  23 H23            1.8699    -2.6734    -0.4572 H       
  24 H24            0.2007    -2.6289     0.1593 H       
  25 H25           -0.5312    -1.4682    -1.9061 H       
  26 H26            1.1380    -1.5127    -2.5225 H       
@<TRIPOS>BOND
   1    1    2 ar
   2    1    3 1
   3    1   12 ar
   4    2    9 ar
   5    2    6 1
   6    3    4 am
   7    3    7 2
   8    3    8 2
   9    4    5 1
  10    4   17 1
  11    5    6 1
  12    5   18 1
  13    5   19 1
  14    6   13 1
  15    9   10 ar
  16    9   20 1
  17   10   11 ar
  18   10   21 1
  19   11   12 ar
  20   11   15 1
  21   12   22 1
  22   13   14 1
  23   13   23 1
  24   13   24 1
  25   14   16 1
  26   14   25 1
  27   14   26 1

#	End of record

