#	Name: ASD08170055
#	Creating user name:	WinNT
#	Creation time:	15. 06. 2019 21:17

#	Modifying user name:	WinNT
#	Modification time:	15. 06. 2019 21:17

#	Program:	/corina/corina34_cracker 3.40 0067  02.08.2006

@<TRIPOS>MOLECULE
ASD08170055
  57   58    0    0    0
SMALL
NO_CHARGES


@<TRIPOS>ATOM
   1 N1            -0.0150     1.2583     0.0090 N.2     
   2 N2             0.0021    -0.0041     0.0020 N.2     
   3 C3             1.1271     1.8769     0.0014 C.2     
   4 S4             2.3826     0.7116    -0.0169 S.3     
   5 C5             1.1681    -0.5677    -0.0121 C.2     
   6 C6             1.4387    -2.0502    -0.0227 C.3     
   7 C7             1.5165    -2.5442    -1.4687 C.3     
   8 C8             2.1699    -6.2152    -3.4347 C.3     
   9 C9             2.2167    -6.5408    -4.9053 C.2     
  10 N10            3.2694    -6.5184    -5.6596 N.2     
  11 S11            0.8491    -7.0282    -5.9071 S.3     
  12 C12            1.9000    -7.1354    -7.2557 C.2     
  13 N13            3.1017    -6.8250    -6.8728 N.2     
  14 N14            1.5289    -7.4992    -8.5457 N.am    
  15 C15            2.4537    -7.5464    -9.5250 C.2     
  16 O16            3.6096    -7.2716    -9.2812 O.2     
  17 C17            2.0516    -7.9407   -10.9228 C.3     
  18 N18            1.3017     3.2566     0.0067 N.am    
  19 C19            0.2284     4.0717     0.0214 C.2     
  20 C20            0.4176     5.5667     0.0272 C.3     
  21 O21           -0.8897     3.6019     0.0299 O.2     
  22 C22            1.8986    -4.7206    -3.2516 C.3     
  23 C23            3.2807    -7.9145   -11.8336 C.3     
  24 C24           -0.9494     6.2538     0.0441 C.3     
  25 S25            1.8422    -4.3286    -1.4814 S.3     
  26 C26           -0.7609     7.7674    -0.0758 C.3     
  27 C27            2.8527    -8.1927   -13.2759 C.3     
  28 C28            1.4602    -9.3516   -10.9046 C.3     
  29 C29            1.2094     5.9758     1.2708 C.3     
  30 H30            2.3843    -2.2506     0.4811 H       
  31 H31            0.6334    -2.5702     0.4961 H       
  32 H32            0.5709    -2.3438    -1.9724 H       
  33 H33            2.3218    -2.0242    -1.9874 H       
  34 H34            1.3741    -6.7896    -2.9605 H       
  35 H35            3.1250    -6.4700    -2.9755 H       
  36 H36            0.6045    -7.7190    -8.7407 H       
  37 H37            1.3064    -7.2392   -11.2980 H       
  38 H38            2.1959     3.6323    -0.0001 H       
  39 H39            0.9643     5.8672    -0.8667 H       
  40 H40            2.6943    -4.1461    -3.7258 H       
  41 H41            0.9434    -4.4658    -3.7108 H       
  42 H42            3.7536    -6.9341   -11.7776 H       
  43 H43            3.9883    -8.6782   -11.5109 H       
  44 H44           -1.5469     5.8945    -0.7938 H       
  45 H45           -1.4599     6.0241     0.9793 H       
  46 H46           -0.1634     8.1266     0.7620 H       
  47 H47           -0.2504     7.9970    -1.0111 H       
  48 H48           -1.7348     8.2568    -0.0638 H       
  49 H49            2.3797    -9.1731   -13.3319 H       
  50 H50            2.1450    -7.4290   -13.5986 H       
  51 H51            3.7283    -8.1741   -13.9248 H       
  52 H52            1.1694    -9.6368   -11.9156 H       
  53 H53            2.2054   -10.0531   -10.5294 H       
  54 H54            0.5846    -9.3703   -10.2557 H       
  55 H55            2.1833     5.4864     1.2588 H       
  56 H56            1.3463     7.0572     1.2750 H       
  57 H57            0.6628     5.6753     2.1647 H       
@<TRIPOS>BOND
   1    1    2 1
   2    1    3 2
   3    2    5 2
   4    3    4 1
   5    3   18 1
   6    4    5 1
   7    5    6 1
   8    6    7 1
   9    6   30 1
  10    6   31 1
  11    7   25 1
  12    7   32 1
  13    7   33 1
  14    8    9 1
  15    8   22 1
  16    8   34 1
  17    8   35 1
  18    9   10 2
  19    9   11 1
  20   10   13 1
  21   11   12 1
  22   12   13 2
  23   12   14 1
  24   14   15 am
  25   14   36 1
  26   15   16 2
  27   15   17 1
  28   17   23 1
  29   17   28 1
  30   17   37 1
  31   18   19 am
  32   18   38 1
  33   19   20 1
  34   19   21 2
  35   20   24 1
  36   20   29 1
  37   20   39 1
  38   22   25 1
  39   22   40 1
  40   22   41 1
  41   23   27 1
  42   23   42 1
  43   23   43 1
  44   24   26 1
  45   24   44 1
  46   24   45 1
  47   26   46 1
  48   26   47 1
  49   26   48 1
  50   27   49 1
  51   27   50 1
  52   27   51 1
  53   28   52 1
  54   28   53 1
  55   28   54 1
  56   29   55 1
  57   29   56 1
  58   29   57 1

#	End of record

