#	Name: ASD03091125
#	Creating user name:	WinNT
#	Creation time:	15. 06. 2019 20:30

#	Modifying user name:	WinNT
#	Modification time:	15. 06. 2019 20:30

#	Program:	/corina/corina34_cracker 3.40 0067  02.08.2006

@<TRIPOS>MOLECULE
ASD03091125
  55   59    0    0    0
SMALL
NO_CHARGES


@<TRIPOS>ATOM
   1 C1            -1.0083    -1.3598     0.2511 C.2     
   2 C2            -0.1174    -0.1722    -0.0077 C.3     
   3 O3            -0.5227    -2.4610     0.4010 O.2     
   4 N4            -2.3444    -1.1972     0.3217 N.am    
   5 C5            -3.2105    -2.3516     0.5733 C.3     
   6 C6            -3.3082    -2.5970     2.0804 C.3     
   7 C7            -4.6059    -2.0747     0.0102 C.3     
   8 N8             3.2207    -1.0698     1.1929 N.2     
   9 C9             1.9802    -0.6929     1.1314 C.2     
  10 N10            1.2814    -0.6071    -0.0316 N.am    
  11 C11            1.8664    -0.9204    -1.2112 C.2     
  12 C12            3.2720    -1.3513    -1.1762 C.ar    
  13 C13            3.9656    -1.6961    -2.3340 C.ar    
  14 C14            5.2880    -2.0950    -2.2386 C.ar    
  15 C15            5.9203    -2.1513    -0.9966 C.ar    
  16 C16            5.2519    -1.8164     0.1462 C.ar    
  17 C17            3.9173    -1.4102     0.0789 C.ar    
  18 O18            1.2529    -0.8486    -2.2601 O.2     
  19 C19            1.2783    -0.3324     2.4153 C.3     
  20 C20            1.7880    -0.9792     3.7048 C.3     
  21 C21            2.0554     0.5029     3.4348 C.3     
  22 C22            7.4542    -2.1557    -3.2377 C.3     
  23 N23            5.9935    -2.4437    -3.3937 N.3     
  24 C24            5.5401    -1.6418    -4.5557 C.3     
  25 C25            6.8229    -0.9246    -5.0791 C.3     
  26 N26            7.1210     0.1017    -4.0309 N.3     
  27 C27            7.5031    -0.6550    -2.8143 C.3     
  28 C28            7.8954    -2.0208    -4.7392 C.3     
  29 H29           -0.3758     0.2733    -0.9684 H       
  30 H30           -0.2553     0.5648     0.7834 H       
  31 H31           -2.7325    -0.3158     0.2058 H       
  32 H32           -2.7912    -3.2330     0.0881 H       
  33 H33           -3.7275    -1.7156     2.5656 H       
  34 H34           -3.9526    -3.4559     2.2676 H       
  35 H35           -2.3141    -2.7943     2.4815 H       
  36 H36           -4.5362    -1.8999    -1.0635 H       
  37 H37           -5.2503    -2.9336     0.1974 H       
  38 H38           -5.0251    -1.1933     0.4954 H       
  39 H39            3.4767    -1.6532    -3.2960 H       
  40 H40            6.9522    -2.4643    -0.9379 H       
  41 H41            5.7547    -1.8656     1.1008 H       
  42 H42            0.2062    -0.1546     2.3310 H       
  43 H43            1.0512    -1.2266     4.4690 H       
  44 H44            2.6310    -1.6655     3.6245 H       
  45 H45            3.0743     0.7916     3.1769 H       
  46 H46            1.4946     1.2305     4.0214 H       
  47 H47            8.0167    -2.8507    -2.6143 H       
  48 H48            5.1288    -2.2925    -5.3273 H       
  49 H49            4.7973    -0.9081    -4.2426 H       
  50 H50            6.7880    -0.5646    -6.1073 H       
  51 H51            7.8674     0.7134    -4.3256 H       
  52 H52            6.7912    -0.4649    -2.0111 H       
  53 H53            8.5108    -0.3829    -2.5002 H       
  54 H54            8.9149    -1.6484    -4.8397 H       
  55 H55            7.7394    -2.9415    -5.3013 H       
@<TRIPOS>BOND
   1    1    2 1
   2    1    3 2
   3    1    4 am
   4    2   10 1
   5    2   29 1
   6    2   30 1
   7    4    5 1
   8    4   31 1
   9    5    6 1
  10    5    7 1
  11    5   32 1
  12    6   33 1
  13    6   34 1
  14    6   35 1
  15    7   36 1
  16    7   37 1
  17    7   38 1
  18    8    9 2
  19    8   17 1
  20    9   10 1
  21    9   19 1
  22   10   11 am
  23   11   12 1
  24   11   18 2
  25   12   13 ar
  26   12   17 ar
  27   13   14 ar
  28   13   39 1
  29   14   15 ar
  30   14   23 1
  31   15   16 ar
  32   15   40 1
  33   16   17 ar
  34   16   41 1
  35   19   20 1
  36   19   21 1
  37   19   42 1
  38   20   21 1
  39   20   43 1
  40   20   44 1
  41   21   45 1
  42   21   46 1
  43   22   23 1
  44   22   27 1
  45   22   28 1
  46   22   47 1
  47   23   24 1
  48   24   25 1
  49   24   48 1
  50   24   49 1
  51   25   26 1
  52   25   28 1
  53   25   50 1
  54   26   27 1
  55   26   51 1
  56   27   52 1
  57   27   53 1
  58   28   54 1
  59   28   55 1

#	End of record

