#	Name: ASD07300623
#	Creating user name:	WinNT
#	Creation time:	15. 06. 2019 21:10

#	Modifying user name:	WinNT
#	Modification time:	15. 06. 2019 21:10

#	Program:	/corina/corina34_cracker 3.40 0067  02.08.2006

@<TRIPOS>MOLECULE
ASD07300623
  46   49    0    0    0
SMALL
NO_CHARGES


@<TRIPOS>ATOM
   1 C1            -0.0173     1.4132    -0.0100 C.2     
   2 C2             0.0021    -0.0041     0.0020 C.2     
   3 N3             1.1780     2.0870    -0.0172 N.pl3   
   4 N4             1.1570    -0.6390     0.0060 N.2     
   5 C5             2.3159     0.0275    -0.0010 C.2     
   6 C6             2.3488     1.3750    -0.0119 C.2     
   7 N7            -0.9985     2.3007    -0.0112 N.2     
   8 C8            -0.4876     3.5284    -0.0251 C.2     
   9 C9             0.8869     3.4238    -0.0283 C.2     
  10 N10           -1.1861    -0.7177     0.0100 N.pl3   
  11 C11           -1.1896    -2.1845    -0.1073 C.3     
  12 C12           -2.0522    -2.7579     1.0227 C.3     
  13 O13           -3.3301    -2.1170     1.0109 O.3     
  14 C14           -3.2811    -0.7092     1.2547 C.3     
  15 C15           -2.4810    -0.0313     0.1422 C.3     
  16 C16           -1.2756     4.8130    -0.0309 C.3     
  17 C17            2.9632     4.5218     0.8109 C.ar    
  18 C18            1.8573     4.5387    -0.0383 C.ar    
  19 C19            1.6798     5.6281    -0.9014 C.ar    
  20 C20            2.6152     6.6465    -0.8740 C.ar    
  21 C21            3.6927     6.5563     0.0026 C.ar    
  22 N22            3.8307     5.5140     0.8049 N.ar    
  23 F23            2.4849     7.7162    -1.6889 F       
  24 O24            4.6145     7.5522     0.0347 O.3     
  25 C25            5.6979     7.4040     0.9546 C.3     
  26 C26            6.6267     8.6151     0.8481 C.3     
  27 H27            3.2441    -0.5247     0.0026 H       
  28 H28            3.2966     1.8928    -0.0174 H       
  29 H29           -1.6072    -2.4747    -1.0714 H       
  30 H30           -0.1709    -2.5622    -0.0194 H       
  31 H31           -2.1812    -3.8300     0.8742 H       
  32 H32           -1.5638    -2.5784     1.9805 H       
  33 H33           -4.2941    -0.3074     1.2730 H       
  34 H34           -2.7971    -0.5223     2.2133 H       
  35 H35           -2.3172     1.0161     0.3953 H       
  36 H36           -3.0310    -0.1010    -0.7963 H       
  37 H37           -1.4583     5.1317     0.9953 H       
  38 H38           -0.7106     5.5834    -0.5556 H       
  39 H39           -2.2278     4.6528    -0.5367 H       
  40 H40            3.1079     3.6894     1.4837 H       
  41 H41            0.8340     5.6712    -1.5716 H       
  42 H42            5.3060     7.3348     1.9694 H       
  43 H43            6.2545     6.4973     0.7174 H       
  44 H44            7.0186     8.6844    -0.1667 H       
  45 H45            6.0702     9.5218     1.0853 H       
  46 H46            7.4531     8.5021     1.5498 H       
@<TRIPOS>BOND
   1    1    2 1
   2    1    3 1
   3    1    7 2
   4    2    4 2
   5    2   10 1
   6    3    6 1
   7    3    9 1
   8    4    5 1
   9    5    6 2
  10    5   27 1
  11    6   28 1
  12    7    8 1
  13    8    9 2
  14    8   16 1
  15    9   18 1
  16   10   11 1
  17   10   15 1
  18   11   12 1
  19   11   29 1
  20   11   30 1
  21   12   13 1
  22   12   31 1
  23   12   32 1
  24   13   14 1
  25   14   15 1
  26   14   33 1
  27   14   34 1
  28   15   35 1
  29   15   36 1
  30   16   37 1
  31   16   38 1
  32   16   39 1
  33   17   18 ar
  34   17   22 ar
  35   17   40 1
  36   18   19 ar
  37   19   20 ar
  38   19   41 1
  39   20   21 ar
  40   20   23 1
  41   21   22 ar
  42   21   24 1
  43   24   25 1
  44   25   26 1
  45   25   42 1
  46   25   43 1
  47   26   44 1
  48   26   45 1
  49   26   46 1

#	End of record

