#	Name: ASD01208982
#	Creating user name:	WinNT
#	Creation time:	15. 06. 2019 19:10

#	Modifying user name:	WinNT
#	Modification time:	15. 06. 2019 19:10

#	Program:	/corina/corina34_cracker 3.40 0067  02.08.2006

@<TRIPOS>MOLECULE
ASD01208982
  47   50    0    0    0
SMALL
NO_CHARGES


@<TRIPOS>ATOM
   1 C1            -0.7609    -2.6333     0.7976 C.3     
   2 C2            -1.0790    -2.0744    -0.6115 C.3     
   3 C3            -1.2875    -0.5595    -0.5617 C.3     
   4 C4            -2.5351    -0.2433     0.2656 C.3     
   5 C5            -2.6682     1.2495     0.4234 C.2     
   6 N6            -1.7307     1.9417     1.1004 N.am    
   7 C7            -1.9033     3.3023     1.3328 C.2     
   8 N8            -3.7198    -0.7698    -0.4167 N.pl3   
   9 C9            -4.4199    -0.1459    -1.3872 C.2     
  10 C10           -5.4360    -0.9616    -1.7522 C.2     
  11 C11           -5.3542    -2.1237    -0.9782 C.2     
  12 N12           -4.3225    -2.0122    -0.1812 N.2     
  13 O13           -3.6189     1.8279    -0.0588 O.2     
  14 S14           -0.7744     4.3420     2.1975 S.3     
  15 C15           -1.8488     5.7154     1.9416 C.2     
  16 C16           -2.9144     5.2907     1.2591 C.2     
  17 N17           -2.9191     4.0093     0.9425 N.2     
  18 F18           -1.6315     6.9801     2.3640 F       
  19 S19           -6.6480    -0.6201    -2.9846 S.o2    
  20 O20           -7.7734    -1.3945    -2.5934 O.2     
  21 O21           -6.7142     0.7987    -3.0274 O.2     
  22 C22           -5.9299    -1.2704    -4.5182 C.3     
  23 C23           -6.6979    -1.0233    -5.8182 C.3     
  24 C24           -5.4036    -0.2574    -5.5369 C.3     
  25 C25            0.2041    -2.4284    -1.4055 C.3     
  26 C26            0.6122    -3.8074    -0.8469 C.3     
  27 C27           -0.0047    -3.9228     0.5314 C.2     
  28 O28            0.0877    -4.8658     1.2801 O.2     
  29 H29           -0.1364    -1.9334     1.3527 H       
  30 H30           -1.6823    -2.8379     1.3429 H       
  31 H31           -1.9513    -2.5703    -1.0374 H       
  32 H32           -0.4183    -0.0880    -0.1031 H       
  33 H33           -1.4164    -0.1770    -1.5742 H       
  34 H34           -2.4462    -0.7061     1.2484 H       
  35 H35           -0.9356     1.4912     1.4255 H       
  36 H36           -4.2074     0.8298    -1.7987 H       
  37 H37           -6.0241    -2.9691    -1.0322 H       
  38 H38           -3.7196     5.9543     0.9800 H       
  39 H39           -5.3927    -2.2140    -4.4226 H       
  40 H40           -6.6656    -1.8041    -6.5780 H       
  41 H41           -7.6347    -0.4700    -5.7520 H       
  42 H42           -5.4889     0.7998    -5.2856 H       
  43 H43           -4.5198    -0.5344    -6.1117 H       
  44 H44           -0.0117    -2.4957    -2.4718 H       
  45 H45            0.9859    -1.6925    -1.2177 H       
  46 H46            0.2315    -4.5985    -1.4929 H       
  47 H47            1.6978    -3.8741    -0.7759 H       
@<TRIPOS>BOND
   1    1    2 1
   2    1   27 1
   3    1   29 1
   4    1   30 1
   5    2    3 1
   6    2   25 1
   7    2   31 1
   8    3    4 1
   9    3   32 1
  10    3   33 1
  11    4    5 1
  12    4    8 1
  13    4   34 1
  14    5    6 am
  15    5   13 2
  16    6    7 1
  17    6   35 1
  18    7   14 1
  19    7   17 2
  20    8    9 1
  21    8   12 1
  22    9   10 2
  23    9   36 1
  24   10   11 1
  25   10   19 1
  26   11   12 2
  27   11   37 1
  28   14   15 1
  29   15   16 2
  30   15   18 1
  31   16   17 1
  32   16   38 1
  33   19   20 2
  34   19   21 2
  35   19   22 1
  36   22   23 1
  37   22   24 1
  38   22   39 1
  39   23   24 1
  40   23   40 1
  41   23   41 1
  42   24   42 1
  43   24   43 1
  44   25   26 1
  45   25   44 1
  46   25   45 1
  47   26   27 1
  48   26   46 1
  49   26   47 1
  50   27   28 2

#	End of record

