#	Name: ASD01230035
#	Creating user name:	WinNT
#	Creation time:	15. 06. 2019 19:11

#	Modifying user name:	WinNT
#	Modification time:	15. 06. 2019 19:11

#	Program:	/corina/corina34_cracker 3.40 0067  02.08.2006

@<TRIPOS>MOLECULE
ASD01230035
  44   46    0    0    0
SMALL
NO_CHARGES


@<TRIPOS>ATOM
   1 C1            -0.0187     1.5274     0.0104 C.3     
   2 C2             0.0021    -0.0041     0.0020 C.3     
   3 C3             0.4820    -0.4928    -1.3665 C.3     
   4 C4             1.7730     0.2288    -1.7188 C.2     
   5 C5             2.1823     1.3492    -1.1123 C.2     
   6 C6             1.4218     2.0463    -0.0005 C.3     
   7 C7             2.6985    -0.2138    -2.7456 C.2     
   8 C8             3.7889     0.5992    -2.8795 C.2     
   9 S9             3.7121     1.8958    -1.7788 S.3     
  10 C10            2.4849    -1.4151    -3.5587 C.2     
  11 O11            1.8785    -1.3377    -4.6112 O.2     
  12 N12            2.9600    -2.6051    -3.1407 N.am    
  13 N13            4.8168     0.3961    -3.7878 N.am    
  14 C14            5.8504     1.2595    -3.8399 C.2     
  15 C15            6.9675     1.0388    -4.8270 C.3     
  16 O16            5.8814     2.2141    -3.0924 O.2     
  17 N17            7.9614     2.1057    -4.6863 N.pl3   
  18 N18            7.7099     3.4817    -4.7622 N.2     
  19 C19            8.8417     4.1144    -4.5877 C.2     
  20 C20            9.8489     3.1632    -4.3952 C.2     
  21 C21            9.2801     1.9368    -4.4547 C.2     
  22 C22           11.3084     3.4531    -4.1572 C.3     
  23 O23           12.0201     2.2230    -4.0075 O.3     
  24 C24            9.0281     5.6099    -4.5935 C.3     
  25 F25            7.7811     6.2348    -4.7015 F       
  26 F26            9.6474     6.0073    -3.4037 F       
  27 F27            9.8288     5.9758    -5.6808 F       
  28 H28           -0.5436     1.8899    -0.8734 H       
  29 H29           -0.5266     1.8803     0.9080 H       
  30 H30            0.6807    -0.3634     0.7756 H       
  31 H31           -1.0020    -0.3830     0.1925 H       
  32 H32            0.6627    -1.5670    -1.3281 H       
  33 H33           -0.2758    -0.2743    -2.1189 H       
  34 H34            1.4215     3.1219    -0.1766 H       
  35 H35            1.8953     1.8305     0.9573 H       
  36 H36            3.4433    -2.6667    -2.3019 H       
  37 H37            2.8187    -3.3998    -3.6786 H       
  38 H38            4.7919    -0.3673    -4.3856 H       
  39 H39            7.4387     0.0753    -4.6330 H       
  40 H40            6.5646     1.0488    -5.8398 H       
  41 H41            9.7912     0.9918    -4.3441 H       
  42 H42           11.7122     4.0055    -5.0056 H       
  43 H43           11.4175     4.0485    -3.2508 H       
  44 H44           12.9680     2.3335    -3.8511 H       
@<TRIPOS>BOND
   1    1    2 1
   2    1    6 1
   3    1   28 1
   4    1   29 1
   5    2    3 1
   6    2   30 1
   7    2   31 1
   8    3    4 1
   9    3   32 1
  10    3   33 1
  11    4    5 2
  12    4    7 1
  13    5    6 1
  14    5    9 1
  15    6   34 1
  16    6   35 1
  17    7    8 2
  18    7   10 1
  19    8    9 1
  20    8   13 1
  21   10   11 2
  22   10   12 am
  23   12   36 1
  24   12   37 1
  25   13   14 am
  26   13   38 1
  27   14   15 1
  28   14   16 2
  29   15   17 1
  30   15   39 1
  31   15   40 1
  32   17   18 1
  33   17   21 1
  34   18   19 2
  35   19   20 1
  36   19   24 1
  37   20   21 2
  38   20   22 1
  39   21   41 1
  40   22   23 1
  41   22   42 1
  42   22   43 1
  43   23   44 1
  44   24   25 1
  45   24   26 1
  46   24   27 1

#	End of record

