#	Name: ASD03091827
#	Creating user name:	WinNT
#	Creation time:	15. 06. 2019 20:31

#	Modifying user name:	WinNT
#	Modification time:	15. 06. 2019 20:31

#	Program:	/corina/corina34_cracker 3.40 0067  02.08.2006

@<TRIPOS>MOLECULE
ASD03091827
  51   55    0    0    0
SMALL
NO_CHARGES


@<TRIPOS>ATOM
   1 N1            -0.0165     1.3640     0.0095 N.pl3   
   2 C2             0.0021    -0.0041     0.0020 C.2     
   3 C3             1.2698    -0.4448    -0.0124 C.2     
   4 C4             2.1342     0.7383    -0.0143 C.ar    
   5 C5             3.5161     0.9281    -0.0269 C.ar    
   6 C6             4.0268     2.2184    -0.0252 C.ar    
   7 C7             3.1600     3.3162    -0.0111 C.ar    
   8 C8             1.8071     3.1357     0.0017 C.ar    
   9 C9             1.2720     1.8505    -0.0001 C.ar    
  10 C10           -1.2201    -0.8857     0.0094 C.3     
  11 F11           -2.3699    -0.0888     0.0245 F       
  12 F12           -1.2235    -1.6876    -1.1369 F       
  13 F13           -1.2015    -1.6991     1.1475 F       
  14 C14            6.3677     1.3495    -0.0517 C.ar    
  15 C15            5.4949     2.4340    -0.0380 C.ar    
  16 C16            6.0217     3.7297    -0.0370 C.ar    
  17 C17            7.3954     3.8803    -0.0496 C.ar    
  18 C18            8.2021     2.7489    -0.0629 C.ar    
  19 N19            7.6722     1.5367    -0.0635 N.ar    
  20 O20            9.5515     2.8894    -0.0754 O.3     
  21 C21           12.5352     0.6969    -0.7015 C.3     
  22 C22           11.6480     1.9463    -0.8224 C.3     
  23 C23           10.3285     1.6902    -0.0887 C.3     
  24 C24           10.6139     1.2522     1.3507 C.3     
  25 C25           11.5712     0.0499     1.3244 C.3     
  26 C26           11.0312    -0.9620     0.2877 C.3     
  27 C27           11.6682    -0.5345    -1.0509 C.3     
  28 N28           12.8551     0.5214     0.7403 N.3     
  29 C29           13.9163    -0.4772     0.9263 C.3     
  30 H30           -0.8181     1.9102     0.0165 H       
  31 H31            1.5917    -1.4757    -0.0207 H       
  32 H32            4.1826     0.0784    -0.0375 H       
  33 H33            3.5654     4.3172    -0.0099 H       
  34 H34            1.1497     3.9925     0.0129 H       
  35 H35            5.9718     0.3447    -0.0481 H       
  36 H36            5.3708     4.5914    -0.0268 H       
  37 H37            7.8368     4.8660    -0.0496 H       
  38 H38           13.4263     0.7642    -1.3257 H       
  39 H39           12.1559     2.7996    -0.3731 H       
  40 H40           11.4472     2.1510    -1.8740 H       
  41 H41            9.7743     0.9048    -0.6027 H       
  42 H42           11.0754     2.0743     1.8978 H       
  43 H43            9.6814     0.9657     1.8369 H       
  44 H44           11.6959    -0.3973     2.3105 H       
  45 H45           11.3404    -1.9741     0.5488 H       
  46 H46            9.9446    -0.9001     0.2276 H       
  47 H47           10.8948    -0.2623    -1.7692 H       
  48 H48           12.2906    -1.3363    -1.4480 H       
  49 H49           14.8168    -0.1516     0.4057 H       
  50 H50           14.1305    -0.5860     1.9895 H       
  51 H51           13.5889    -1.4350     0.5218 H       
@<TRIPOS>BOND
   1    1    2 1
   2    1    9 1
   3    1   30 1
   4    2    3 2
   5    2   10 1
   6    3    4 1
   7    3   31 1
   8    4    5 ar
   9    4    9 ar
  10    5    6 ar
  11    5   32 1
  12    6    7 ar
  13    6   15 1
  14    7    8 ar
  15    7   33 1
  16    8    9 ar
  17    8   34 1
  18   10   11 1
  19   10   12 1
  20   10   13 1
  21   14   15 ar
  22   14   19 ar
  23   14   35 1
  24   15   16 ar
  25   16   17 ar
  26   16   36 1
  27   17   18 ar
  28   17   37 1
  29   18   19 ar
  30   18   20 1
  31   20   23 1
  32   21   22 1
  33   21   27 1
  34   21   28 1
  35   21   38 1
  36   22   23 1
  37   22   39 1
  38   22   40 1
  39   23   24 1
  40   23   41 1
  41   24   25 1
  42   24   42 1
  43   24   43 1
  44   25   26 1
  45   25   28 1
  46   25   44 1
  47   26   27 1
  48   26   45 1
  49   26   46 1
  50   27   47 1
  51   27   48 1
  52   28   29 1
  53   29   49 1
  54   29   50 1
  55   29   51 1

#	End of record

