#	Name: ASD05730170
#	Creating user name:	WinNT
#	Creation time:	15. 06. 2019 21:02

#	Modifying user name:	WinNT
#	Modification time:	15. 06. 2019 21:02

#	Program:	/corina/corina34_cracker 3.40 0067  02.08.2006

@<TRIPOS>MOLECULE
ASD05730170
  58   61    0    0    0
SMALL
NO_CHARGES


@<TRIPOS>ATOM
   1 N1            -0.0170     1.4000     0.0097 N.pl3   
   2 C2             0.6151    -0.7207     1.0351 C.ar    
   3 C3             2.1279     1.8722     1.0337 C.ar    
   4 N4             1.1276    -0.0927     2.1304 N.2     
   5 C5             1.7893     1.0101     2.1758 C.2     
   6 N6             2.2230     1.4230     3.4151 N.pl3   
   7 C7             1.9245     0.6172     4.6016 C.3     
   8 C8             0.0021    -0.0041     0.0020 C.ar    
   9 C9            -0.5848    -0.6815    -1.0536 C.ar    
  10 C10           -0.5268    -2.0639    -1.1144 C.ar    
  11 C11            0.1218    -2.7761    -0.1211 C.ar    
  12 C12            0.6914    -2.1127     0.9508 C.ar    
  13 C13            1.2027     2.0788     0.0017 C.ar    
  14 C14            3.3723     2.5006     0.9760 C.ar    
  15 C15            3.6696     3.3482    -0.0738 C.ar    
  16 C16            2.7360     3.5811    -1.0691 C.ar    
  17 C17            1.5066     2.9484    -1.0337 C.ar    
  18 Cl18           5.2203     4.1253    -0.1445 Cl      
  19 F19            0.1993    -4.1226    -0.1986 F       
  20 C20           -1.2849     2.1339     0.0198 C.3     
  21 C21           -1.7194     2.3815     1.4657 C.3     
  22 C22            2.9651     0.8728     5.7237 C.3     
  23 C23            2.1752     0.5460     7.0086 C.3     
  24 N24            0.7464     0.6757     6.6875 N.am    
  25 C25            0.6141     1.0903     5.2789 C.3     
  26 C26           -0.2736     0.4517     7.5394 C.2     
  27 O27           -1.4215     0.5901     7.1632 O.2     
  28 N28           -0.0213     0.0744     8.8084 N.am    
  29 C29           -1.1300    -0.1691     9.7345 C.3     
  30 C30           -0.6765    -1.1360    10.8301 C.3     
  31 C31           -1.5641     1.1536    10.3693 C.3     
  32 F32           -1.8849     1.1557     2.1194 F       
  33 F33           -0.7404     3.1330     2.1247 F       
  34 H34            2.7262     2.2476     3.5029 H       
  35 H35            1.8742    -0.4421     4.3493 H       
  36 H36           -1.0900    -0.1296    -1.8324 H       
  37 H37           -0.9890    -2.5870    -1.9385 H       
  38 H38            1.1959    -2.6725     1.7244 H       
  39 H39            4.1027     2.3249     1.7518 H       
  40 H40            2.9687     4.2594    -1.8767 H       
  41 H41            0.7825     3.1324    -1.8136 H       
  42 H42           -1.1559     3.0889    -0.4895 H       
  43 H43           -2.0476     1.5484    -0.4936 H       
  44 H44           -2.6627     2.9276     1.4732 H       
  45 H45            3.8200     0.2053     5.6162 H       
  46 H46            3.2854     1.9147     5.7225 H       
  47 H47            2.3923    -0.4733     7.3280 H       
  48 H48            2.4432     1.2489     7.7974 H       
  49 H49            0.5212     2.1741     5.2096 H       
  50 H50           -0.2470     0.6047     4.8198 H       
  51 H51            0.8945    -0.0360     9.1086 H       
  52 H52           -1.9688    -0.6036     9.1908 H       
  53 H53            0.1623    -0.7014    11.3738 H       
  54 H54           -1.5014    -1.3171    11.5191 H       
  55 H55           -0.3673    -2.0783    10.3778 H       
  56 H56           -2.3890     0.9725    11.0584 H       
  57 H57           -0.7253     1.5882    10.9131 H       
  58 H58           -1.8872     1.8425     9.5888 H       
@<TRIPOS>BOND
   1    1    8 1
   2    1   13 1
   3    1   20 1
   4    2    4 1
   5    2    8 ar
   6    2   12 ar
   7    3    5 1
   8    3   14 ar
   9    3   13 ar
  10    4    5 2
  11    5    6 1
  12    6    7 1
  13    6   34 1
  14    7   22 1
  15    7   25 1
  16    7   35 1
  17    8    9 ar
  18    9   10 ar
  19    9   36 1
  20   10   11 ar
  21   10   37 1
  22   11   12 ar
  23   11   19 1
  24   12   38 1
  25   13   17 ar
  26   14   15 ar
  27   14   39 1
  28   15   16 ar
  29   15   18 1
  30   16   17 ar
  31   16   40 1
  32   17   41 1
  33   20   21 1
  34   20   42 1
  35   20   43 1
  36   21   32 1
  37   21   33 1
  38   21   44 1
  39   22   23 1
  40   22   45 1
  41   22   46 1
  42   23   24 1
  43   23   47 1
  44   23   48 1
  45   24   25 1
  46   24   26 am
  47   25   49 1
  48   25   50 1
  49   26   27 2
  50   26   28 am
  51   28   29 1
  52   28   51 1
  53   29   30 1
  54   29   31 1
  55   29   52 1
  56   30   53 1
  57   30   54 1
  58   30   55 1
  59   31   56 1
  60   31   57 1
  61   31   58 1

#	End of record

