#	Name: ASD01917096
#	Creating user name:	WinNT
#	Creation time:	15. 06. 2019 20:08

#	Modifying user name:	WinNT
#	Modification time:	15. 06. 2019 20:08

#	Program:	/corina/corina34_cracker 3.40 0067  02.08.2006

@<TRIPOS>MOLECULE
ASD01917096
  37   39    0    0    0
SMALL
NO_CHARGES


@<TRIPOS>ATOM
   1 C1            -0.0425     1.4708     0.1520 C.ar    
   2 C2            -0.0085    -0.0061     0.0636 C.2     
   3 N3             1.0563    -0.7654     0.2107 N.2     
   4 C4             0.7170    -2.0510     0.0659 C.2     
   5 N5            -0.5740    -2.1276    -0.1764 N.2     
   6 N6            -1.0680    -0.8131    -0.1769 N.pl3   
   7 C7            -2.4545    -0.3970    -0.4025 C.3     
   8 C8            -3.1967    -0.3905     0.9091 C.2     
   9 O9            -4.4916    -0.0391     0.9457 O.3     
  10 O10           -2.6260    -0.7015     1.9277 O.2     
  11 C11            1.6461    -3.2043     0.1623 C.ar    
  12 C12           -1.2476     2.1303     0.3945 C.ar    
  13 C13            1.1694    -4.5020    -0.0090 C.ar    
  14 C14            2.0376    -5.5712     0.0812 C.ar    
  15 C15            3.3796    -5.3557     0.3417 C.ar    
  16 C16            3.8581    -4.0680     0.5132 C.ar    
  17 C17            2.9993    -2.9922     0.4188 C.ar    
  18 C18            5.3205    -3.8406     0.7972 C.3     
  19 C19           -1.2726     3.5075     0.4763 C.ar    
  20 C20           -0.1060     4.2341     0.3179 C.ar    
  21 C21            1.0921     3.5858     0.0767 C.ar    
  22 C22            1.1313     2.2088    -0.0011 C.ar    
  23 Br23           4.5635    -6.8251     0.4646 Br      
  24 H24           -2.4678     0.6045    -0.8325 H       
  25 H25           -2.9358    -1.0936    -1.0889 H       
  26 H26           -4.9252    -0.0501     1.8099 H       
  27 H27           -2.1590     1.5643     0.5177 H       
  28 H28            0.1222    -4.6713    -0.2117 H       
  29 H29            1.6690    -6.5776    -0.0515 H       
  30 H30            3.3736    -1.9880     0.5524 H       
  31 H31            5.8588    -3.7204    -0.1430 H       
  32 H32            5.4377    -2.9404     1.4006 H       
  33 H33            5.7227    -4.6964     1.3394 H       
  34 H34           -2.2049     4.0193     0.6641 H       
  35 H35           -0.1308     5.3118     0.3825 H       
  36 H36            1.9993     4.1586    -0.0468 H       
  37 H37            2.0672     1.7038    -0.1894 H       
@<TRIPOS>BOND
   1    1    2 1
   2    1   12 ar
   3    1   22 ar
   4    2    3 2
   5    2    6 1
   6    3    4 1
   7    4    5 2
   8    4   11 1
   9    5    6 1
  10    6    7 1
  11    7    8 1
  12    7   24 1
  13    7   25 1
  14    8    9 1
  15    8   10 2
  16    9   26 1
  17   11   13 ar
  18   11   17 ar
  19   12   19 ar
  20   12   27 1
  21   13   14 ar
  22   13   28 1
  23   14   15 ar
  24   14   29 1
  25   15   16 ar
  26   15   23 1
  27   16   17 ar
  28   16   18 1
  29   17   30 1
  30   18   31 1
  31   18   32 1
  32   18   33 1
  33   19   20 ar
  34   19   34 1
  35   20   21 ar
  36   20   35 1
  37   21   22 ar
  38   21   36 1
  39   22   37 1

#	End of record

