#	Name: ASD03320110
#	Creating user name:	WinNT
#	Creation time:	15. 06. 2019 20:36

#	Modifying user name:	WinNT
#	Modification time:	15. 06. 2019 20:36

#	Program:	/corina/corina34_cracker 3.40 0067  02.08.2006

@<TRIPOS>MOLECULE
ASD03320110
  29   30    0    0    0
SMALL
NO_CHARGES


@<TRIPOS>ATOM
   1 C1            -0.1749     1.4740    -0.5686 C.2     
   2 C2            -0.1528    -0.0034    -0.5722 C.ar    
   3 C3             0.8982    -0.6981    -1.1850 C.ar    
   4 C4             0.8722    -2.0810    -1.1609 C.ar    
   5 C5            -0.1831    -2.7285    -0.5369 C.ar    
   6 N6            -1.1599    -2.0461     0.0319 N.ar    
   7 C7            -1.1752    -0.7293     0.0398 C.ar    
   8 O8             0.7237     2.0968    -1.1004 O.2     
   9 N9            -1.1942     2.1313     0.0193 N.am    
  10 C10           -1.1618     3.5276     0.1194 C.ar    
  11 C11           -2.3386     4.2586     0.0197 C.ar    
  12 C12           -2.3055     5.6369     0.1187 C.ar    
  13 C13           -1.0952     6.2898     0.3177 C.ar    
  14 C14            0.0787     5.5594     0.4167 C.ar    
  15 C15            0.0457     4.1813     0.3240 C.ar    
  16 O16           -1.0623     7.6462     0.4151 O.3     
  17 C17            0.2161     8.2511     0.6196 C.3     
  18 F18            1.0600     7.9304    -0.4491 F       
  19 F19            0.0679     9.6401     0.6962 F       
  20 F20            0.7720     7.7750     1.8119 F       
  21 F21           -3.4494     6.3491     0.0214 F       
  22 Cl22          -0.2211    -4.4637    -0.5035 Cl      
  23 Br23           2.2605    -3.0773    -1.9706 Br      
  24 H24            1.7077    -0.1676    -1.6642 H       
  25 H25           -1.9893    -0.2065     0.5198 H       
  26 H26           -1.9501     1.6370     0.3731 H       
  27 H27           -3.2789     3.7505    -0.1354 H       
  28 H28            1.0191     6.0676     0.5710 H       
  29 H29            0.9602     3.6126     0.4064 H       
@<TRIPOS>BOND
   1    1    2 1
   2    1    8 2
   3    1    9 am
   4    2    3 ar
   5    2    7 ar
   6    3    4 ar
   7    3   24 1
   8    4    5 ar
   9    4   23 1
  10    5    6 ar
  11    5   22 1
  12    6    7 ar
  13    7   25 1
  14    9   10 1
  15    9   26 1
  16   10   11 ar
  17   10   15 ar
  18   11   12 ar
  19   11   27 1
  20   12   13 ar
  21   12   21 1
  22   13   14 ar
  23   13   16 1
  24   14   15 ar
  25   14   28 1
  26   15   29 1
  27   16   17 1
  28   17   18 1
  29   17   19 1
  30   17   20 1

#	End of record

