#	Name: ASD08070676
#	Creating user name:	WinNT
#	Creation time:	15. 06. 2019 21:15

#	Modifying user name:	WinNT
#	Modification time:	15. 06. 2019 21:15

#	Program:	/corina/corina34_cracker 3.40 0067  02.08.2006

@<TRIPOS>MOLECULE
ASD08070676
  45   45    0    0    0
SMALL
NO_CHARGES


@<TRIPOS>ATOM
   1 C1            -0.0178     1.4582     0.0101 C.2     
   2 C2             0.0021    -0.0041     0.0020 C.2     
   3 C3             1.1802    -0.6631    -0.0128 C.2     
   4 O4             1.0280     2.0811     0.0034 O.2     
   5 N5            -1.1940     2.1162     0.0192 N.am    
   6 C6            -1.2138     3.5810     0.0273 C.3     
   7 C7            -1.1019     4.1005    -1.4075 C.3     
   8 C8             0.2628     3.7173    -1.9835 C.3     
   9 C9             0.3748     4.2368    -3.4183 C.3     
  10 C10           -2.5251     4.0699     0.6458 C.3     
  11 C11           -2.5800     3.6562     2.1178 C.3     
  12 C12           -3.8913     4.1451     2.7363 C.3     
  13 C13            1.2001    -2.1324    -0.0209 C.ar    
  14 C14            2.4230    -2.8224    -0.0362 C.ar    
  15 C15            2.4289    -4.2080    -0.0438 C.ar    
  16 C16            1.2367    -4.9063    -0.0362 C.ar    
  17 C17            0.0276    -4.2303    -0.0215 C.ar    
  18 C18            0.0010    -2.8527    -0.0075 C.ar    
  19 O19            3.5933    -2.1356    -0.0441 O.3     
  20 C20            4.7971    -2.9054    -0.0597 C.3     
  21 H21           -0.9258    -0.5567     0.0079 H       
  22 H22            2.1080    -0.1104    -0.0187 H       
  23 H23           -2.0274     1.6198     0.0205 H       
  24 H24           -0.3743     3.9525     0.6148 H       
  25 H25           -1.8904     3.6584    -2.0165 H       
  26 H26           -1.2058     5.1855    -1.4102 H       
  27 H27            1.0513     4.1594    -1.3745 H       
  28 H28            0.3667     2.6323    -1.9808 H       
  29 H29            0.2709     5.3218    -3.4210 H       
  30 H30            1.3470     3.9639    -3.8287 H       
  31 H31           -0.4138     3.7948    -4.0273 H       
  32 H32           -2.5792     5.1560     0.5713 H       
  33 H33           -3.3659     3.6267     0.1122 H       
  34 H34           -2.5259     2.5701     2.1923 H       
  35 H35           -1.7392     4.0994     2.6514 H       
  36 H36           -4.7321     3.7019     2.2027 H       
  37 H37           -3.9304     3.8504     3.7850 H       
  38 H38           -3.9454     5.2312     2.6618 H       
  39 H39            3.3670    -4.7431    -0.0560 H       
  40 H40            1.2475    -5.9862    -0.0421 H       
  41 H41           -0.8986    -4.7858    -0.0164 H       
  42 H42           -0.9439    -2.3300     0.0088 H       
  43 H43            4.8178    -3.5295    -0.9531 H       
  44 H44            5.6568    -2.2353    -0.0647 H       
  45 H45            4.8351    -3.5385     0.8267 H       
@<TRIPOS>BOND
   1    1    2 1
   2    1    4 2
   3    1    5 am
   4    2    3 2
   5    2   21 1
   6    3   13 1
   7    3   22 1
   8    5    6 1
   9    5   23 1
  10    6    7 1
  11    6   10 1
  12    6   24 1
  13    7    8 1
  14    7   25 1
  15    7   26 1
  16    8    9 1
  17    8   27 1
  18    8   28 1
  19    9   29 1
  20    9   30 1
  21    9   31 1
  22   10   11 1
  23   10   32 1
  24   10   33 1
  25   11   12 1
  26   11   34 1
  27   11   35 1
  28   12   36 1
  29   12   37 1
  30   12   38 1
  31   13   14 ar
  32   13   18 ar
  33   14   15 ar
  34   14   19 1
  35   15   16 ar
  36   15   39 1
  37   16   17 ar
  38   16   40 1
  39   17   18 ar
  40   17   41 1
  41   18   42 1
  42   19   20 1
  43   20   43 1
  44   20   44 1
  45   20   45 1

#	End of record

