#	Name: ASD01915179
#	Creating user name:	WinNT
#	Creation time:	15. 06. 2019 20:05

#	Modifying user name:	WinNT
#	Modification time:	15. 06. 2019 20:05

#	Program:	/corina/corina34_cracker 3.40 0067  02.08.2006

@<TRIPOS>MOLECULE
ASD01915179
  42   45    0    0    0
SMALL
NO_CHARGES


@<TRIPOS>ATOM
   1 S1            -0.0172     1.4168     0.0098 S.o2    
   2 O2             0.0021    -0.0041     0.0020 O.2     
   3 N3             1.5649     1.9060    -0.0026 N.am    
   4 C4             2.3041     3.1105     0.4044 C.3     
   5 C5             3.5329     2.2168     0.6223 C.3     
   6 C6             2.8498     1.3246    -0.4196 C.3     
   7 O7             5.1277     3.2164    -1.0831 O.3     
   8 N8             6.2533     3.6665    -1.1203 N.2     
   9 C9             6.7956     3.6195     0.0687 C.2     
  10 N10            5.8804     3.0776     0.9037 N.2     
  11 C11            4.8309     2.8278     0.1610 C.2     
  12 C12            8.1602     4.0752     0.4333 C.ar    
  13 C13            8.9993     4.6172    -0.5383 C.ar    
  14 C14           10.7055     4.9256     1.1134 C.ar    
  15 C15            8.6048     3.9680     1.7491 C.ar    
  16 C16           10.2671     5.0397    -0.1937 C.ar    
  17 C17            9.8748     4.3938     2.0828 C.ar    
  18 C18           11.1757     5.6261    -1.2433 C.3     
  19 C19           -0.7287     1.9132    -1.5238 C.ar    
  20 C20           -0.6880     1.0614    -2.6119 C.ar    
  21 C21           -1.2461     1.4495    -3.8151 C.ar    
  22 C22           -1.8463     2.6919    -3.9306 C.ar    
  23 C23           -1.8866     3.5441    -2.8400 C.ar    
  24 C24           -1.3324     3.1518    -1.6363 C.ar    
  25 O25           -0.6652     2.1797     1.0184 O.2     
  26 F26           -2.3919     3.0725    -5.1064 F       
  27 H27            2.4311     3.8345    -0.4005 H       
  28 H28            1.9272     3.5616     1.3223 H       
  29 H29            3.5921     1.7729     1.6160 H       
  30 H30            2.9360     0.2602    -0.2009 H       
  31 H31            3.1236     1.5681    -1.4462 H       
  32 H32            8.6583     4.7060    -1.5592 H       
  33 H33           11.6985     5.2573     1.3787 H       
  34 H34            7.9568     3.5528     2.5069 H       
  35 H35           10.2222     4.3067     3.1017 H       
  36 H36           11.0266     6.7047    -1.2915 H       
  37 H37           12.2132     5.4138    -0.9854 H       
  38 H38           10.9444     5.1837    -2.2123 H       
  39 H39           -0.2194     0.0925    -2.5218 H       
  40 H40           -1.2138     0.7841    -4.6652 H       
  41 H41           -2.3544     4.5134    -2.9289 H       
  42 H42           -1.3673     3.8147    -0.7844 H       
@<TRIPOS>BOND
   1    1    2 2
   2    1    3 am
   3    1   19 1
   4    1   25 2
   5    3    4 1
   6    3    6 1
   7    4    5 1
   8    4   27 1
   9    4   28 1
  10    5    6 1
  11    5   11 1
  12    5   29 1
  13    6   30 1
  14    6   31 1
  15    7    8 1
  16    7   11 1
  17    8    9 2
  18    9   10 1
  19    9   12 1
  20   10   11 2
  21   12   13 ar
  22   12   15 ar
  23   13   16 ar
  24   13   32 1
  25   14   16 ar
  26   14   17 ar
  27   14   33 1
  28   15   17 ar
  29   15   34 1
  30   16   18 1
  31   17   35 1
  32   18   36 1
  33   18   37 1
  34   18   38 1
  35   19   20 ar
  36   19   24 ar
  37   20   21 ar
  38   20   39 1
  39   21   22 ar
  40   21   40 1
  41   22   23 ar
  42   22   26 1
  43   23   24 ar
  44   23   41 1
  45   24   42 1

#	End of record

