#	Name: ASD01901241
#	Creating user name:	WinNT
#	Creation time:	15. 06. 2019 19:53

#	Modifying user name:	WinNT
#	Modification time:	15. 06. 2019 19:53

#	Program:	/corina/corina34_cracker 3.40 0067  02.08.2006

@<TRIPOS>MOLECULE
ASD01901241
  43   46    0    0    0
SMALL
NO_CHARGES


@<TRIPOS>ATOM
   1 C1             2.7929     1.5802     0.0096 C.ar    
   2 C2             3.2398     0.2756    -0.0140 C.ar    
   3 C3             4.5870     0.0050    -0.1780 C.ar    
   4 C4             5.4954     1.0393    -0.3193 C.ar    
   5 C5             5.0633     2.3489    -0.2976 C.ar    
   6 C6             3.7044     2.6300    -0.1325 C.ar    
   7 C7             3.2480     3.9871    -0.1094 C.1     
   8 C8             2.8738     5.0997    -0.0905 C.1     
   9 C9             2.4174     6.4568    -0.0675 C.ar    
  10 C10            0.6235     8.0446     0.1246 C.ar    
  11 C11            1.0585     6.7364     0.1031 C.ar    
  12 C12            3.3306     7.5060    -0.2098 C.ar    
  13 C13            2.8879     8.8103    -0.1872 C.ar    
  14 C14            1.5352     9.0848    -0.0227 C.ar    
  15 Cl15          -1.0638     8.3939     0.3357 Cl      
  16 N16            1.0898    10.4120    -0.0008 N.am    
  17 C17            0.7268    11.0109    -1.1506 C.2     
  18 C18            0.2153    13.0291     0.0778 C.2     
  19 N19            0.6026    12.3437     1.2372 N.am    
  20 C20            1.0243    11.0712     1.1683 C.2     
  21 C21           -0.5437    14.6943    -1.3195 C.2     
  22 C22           -0.2467    14.3311    -0.0739 C.2     
  23 C23            0.2752    12.3547    -1.1290 C.2     
  24 S24           -0.2659    13.4210    -2.4179 S.3     
  25 C25           -0.4018    15.2695     1.0950 C.3     
  26 C26            0.5532    13.0237     2.5339 C.3     
  27 O27            1.3549    10.5003     2.1899 O.2     
  28 O28            0.7865    10.4018    -2.2038 O.2     
  29 H29            1.7407     1.7898     0.1332 H       
  30 H30            2.5367    -0.5367     0.0960 H       
  31 H31            4.9312    -1.0185    -0.1953 H       
  32 H32            6.5453     0.8206    -0.4464 H       
  33 H33            5.7733     3.1551    -0.4080 H       
  34 H34            0.3504     5.9290     0.2174 H       
  35 H35            4.3820     7.2941    -0.3369 H       
  36 H36            3.5931     9.6209    -0.2970 H       
  37 H37           -0.9136    15.6700    -1.5982 H       
  38 H38           -1.3612    15.0899     1.5803 H       
  39 H39            0.4041    15.0975     1.8085 H       
  40 H40           -0.3605    16.2998     0.7417 H       
  41 H41           -0.4482    13.4218     2.6974 H       
  42 H42            0.7960    12.3147     3.3254 H       
  43 H43            1.2750    13.8404     2.5437 H       
@<TRIPOS>BOND
   1    1    2 ar
   2    1    6 ar
   3    1   29 1
   4    2    3 ar
   5    2   30 1
   6    3    4 ar
   7    3   31 1
   8    4    5 ar
   9    4   32 1
  10    5    6 ar
  11    5   33 1
  12    6    7 1
  13    7    8 3
  14    8    9 1
  15    9   12 ar
  16    9   11 ar
  17   10   11 ar
  18   10   14 ar
  19   10   15 1
  20   11   34 1
  21   12   13 ar
  22   12   35 1
  23   13   14 ar
  24   13   36 1
  25   14   16 1
  26   16   17 am
  27   16   20 am
  28   17   23 1
  29   17   28 2
  30   18   19 1
  31   18   23 2
  32   18   22 1
  33   19   20 am
  34   19   26 1
  35   20   27 2
  36   21   22 2
  37   21   24 1
  38   21   37 1
  39   22   25 1
  40   23   24 1
  41   25   38 1
  42   25   39 1
  43   25   40 1
  44   26   41 1
  45   26   42 1
  46   26   43 1

#	End of record

