#	Name: ASD02562090
#	Creating user name:	WinNT
#	Creation time:	15. 06. 2019 20:25

#	Modifying user name:	WinNT
#	Modification time:	15. 06. 2019 20:25

#	Program:	/corina/corina34_cracker 3.40 0067  02.08.2006

@<TRIPOS>MOLECULE
ASD02562090
  66   70    0    0    0
SMALL
NO_CHARGES


@<TRIPOS>ATOM
   1 C1             0.8713     1.9509     1.8780 C.ar    
   2 C2             1.2184     0.7123     2.4443 C.ar    
   3 C3             0.4642     0.2429     3.5330 C.ar    
   4 N4            -0.5437     0.9797     3.9881 N.ar    
   5 C5            -0.8362     2.1412     3.4256 C.ar    
   6 N6            -0.1484     2.6242     2.3991 N.ar    
   7 N7            -1.8954     2.8810     3.9292 N.pl3   
   8 N8             1.5805     2.4611     0.8035 N.pl3   
   9 C9            -2.6879     2.3581     4.9491 C.ar    
  10 C10            1.2980     3.7392     0.3259 C.ar    
  11 C11            2.2305     4.7606     0.4830 C.ar    
  12 C12           -3.2179     3.2034     5.9191 C.ar    
  13 C13           -4.0008     2.6901     6.9284 C.ar    
  14 C14           -4.2637     1.3179     6.9778 C.ar    
  15 C15           -3.7300     0.4716     6.0013 C.ar    
  16 C16           -2.9522     0.9924     4.9919 C.ar    
  17 C17            0.0864     3.9896    -0.3119 C.ar    
  18 C18           -0.1964     5.2502    -0.7859 C.ar    
  19 C19            0.7364     6.2816    -0.6254 C.ar    
  20 C20            1.9557     6.0243     0.0124 C.ar    
  21 C21            3.5428     4.4824     1.1697 C.3     
  22 C22           -0.9170     2.8784    -0.4841 C.3     
  23 C23           -5.0773     0.7803     8.0264 C.1     
  24 N24           -5.7227     0.3539     8.8583 N.1     
  25 C25            0.4389     7.6296    -1.1306 C.2     
  26 C26            1.3398     8.6229    -0.9748 C.2     
  27 C27            1.0501     9.9361    -1.4669 C.1     
  28 N28            0.8202    10.9778    -1.8573 N.1     
  29 N29            2.1703    -0.2179     2.1873 N.2     
  30 C30            2.0512    -1.2035     3.0282 C.2     
  31 N31            1.0120    -0.9663     3.8797 N.pl3   
  32 C32            0.5634    -1.8420     4.9651 C.3     
  33 C33           -0.5614    -2.7161     4.4730 C.ar    
  34 C34           -0.2824    -3.9461     3.9064 C.ar    
  35 C35           -1.3116    -4.7491     3.4546 C.ar    
  36 C36           -2.6260    -4.3205     3.5697 C.ar    
  37 C37           -2.9033    -3.0860     4.1386 C.ar    
  38 C38           -1.8708    -2.2891     4.5940 C.ar    
  39 O39           -3.6402    -5.1086     3.1255 O.3     
  40 C40           -4.9683    -4.6031     3.2763 C.3     
  41 H41           -2.0847     3.7625     3.5715 H       
  42 H42            2.2740     1.9287     0.3834 H       
  43 H43           -3.0144     4.2634     5.8804 H       
  44 H44           -4.4112     3.3466     7.6813 H       
  45 H45           -3.9311    -0.5889     6.0365 H       
  46 H46           -2.5399     0.3393     4.2371 H       
  47 H47           -1.1364     5.4435    -1.2813 H       
  48 H48            2.6781     6.8172     0.1382 H       
  49 H49            4.2805     4.1697     0.4307 H       
  50 H50            3.8901     5.3865     1.6697 H       
  51 H51            3.4069     3.6897     1.9054 H       
  52 H52           -1.6522     2.9250     0.3193 H       
  53 H53           -1.4207     2.9893    -1.4444 H       
  54 H54           -0.4039     1.9173    -0.4518 H       
  55 H55           -0.5003     7.8254    -1.6264 H       
  56 H56            2.2791     8.4271    -0.4790 H       
  57 H57            2.6813    -2.0804     3.0485 H       
  58 H58            1.3931    -2.4681     5.2933 H       
  59 H59            0.2133    -1.2354     5.8003 H       
  60 H60            0.7411    -4.2791     3.8167 H       
  61 H61           -1.0931    -5.7097     3.0118 H       
  62 H62           -3.9257    -2.7501     4.2293 H       
  63 H63           -2.0862    -1.3279     5.0369 H       
  64 H64           -5.0646    -3.6655     2.7288 H       
  65 H65           -5.6801    -5.3285     2.8825 H       
  66 H66           -5.1733    -4.4296     4.3328 H       
@<TRIPOS>BOND
   1    1    2 ar
   2    1    8 1
   3    1    6 ar
   4    2    3 ar
   5    2   29 1
   6    3    4 ar
   7    3   31 1
   8    4    5 ar
   9    5    6 ar
  10    5    7 1
  11    7    9 1
  12    7   41 1
  13    8   10 1
  14    8   42 1
  15    9   12 ar
  16    9   16 ar
  17   10   11 ar
  18   10   17 ar
  19   11   21 1
  20   11   20 ar
  21   12   13 ar
  22   12   43 1
  23   13   14 ar
  24   13   44 1
  25   14   15 ar
  26   14   23 1
  27   15   16 ar
  28   15   45 1
  29   16   46 1
  30   17   18 ar
  31   17   22 1
  32   18   19 ar
  33   18   47 1
  34   19   20 ar
  35   19   25 1
  36   20   48 1
  37   21   49 1
  38   21   50 1
  39   21   51 1
  40   22   52 1
  41   22   53 1
  42   22   54 1
  43   23   24 3
  44   25   26 2
  45   25   55 1
  46   26   27 1
  47   26   56 1
  48   27   28 3
  49   29   30 2
  50   30   31 1
  51   30   57 1
  52   31   32 1
  53   32   33 1
  54   32   58 1
  55   32   59 1
  56   33   34 ar
  57   33   38 ar
  58   34   35 ar
  59   34   60 1
  60   35   36 ar
  61   35   61 1
  62   36   37 ar
  63   36   39 1
  64   37   38 ar
  65   37   62 1
  66   38   63 1
  67   39   40 1
  68   40   64 1
  69   40   65 1
  70   40   66 1

#	End of record

