#	Name: ASD01910062
#	Creating user name:	WinNT
#	Creation time:	15. 06. 2019 19:55

#	Modifying user name:	WinNT
#	Modification time:	15. 06. 2019 19:55

#	Program:	/corina/corina34_cracker 3.40 0067  02.08.2006

@<TRIPOS>MOLECULE
ASD01910062
  49   52    0    0    0
SMALL
NO_CHARGES


@<TRIPOS>ATOM
   1 C1            -0.0158     1.3124     0.0093 C.2     
   2 N2             0.0021    -0.0041     0.0020 N.2     
   3 N3            -1.3214    -0.4624     0.0127 N.pl3   
   4 C4            -2.1427     0.6240     0.0267 C.2     
   5 C5            -1.3588     1.7338     0.0305 C.2     
   6 C6             1.1743     2.1988     0.0027 C.ar    
   7 C7             2.4549     1.6499    -0.0130 C.ar    
   8 C8             3.5583     2.4790    -0.0191 C.ar    
   9 C9             3.3945     3.8525    -0.0091 C.ar    
  10 C10            2.1256     4.4028     0.0065 C.ar    
  11 C11            1.0151     3.5831     0.0064 C.ar    
  12 C12           -1.7288    -1.8026     0.0089 C.ar    
  13 N13           -3.5370     0.6013     0.0397 N.am    
  14 C14           -4.2296     1.7574     0.0529 C.2     
  15 C15           -5.7364     1.7329     0.0669 C.3     
  16 C16           -6.2696     3.1669     0.0802 C.3     
  17 C17           -7.7994     3.1421     0.0945 C.3     
  18 C18           -8.3094     2.4198    -1.1542 C.3     
  19 C19           -7.7761     0.9858    -1.1674 C.3     
  20 C20           -6.2464     1.0107    -1.1817 C.3     
  21 O21           -3.6403     2.8175     0.0534 O.2     
  22 C22           -0.9960    -2.7506    -0.6931 C.ar    
  23 C23           -1.4003    -4.0712    -0.6950 C.ar    
  24 C24           -2.5335    -4.4499     0.0012 C.ar    
  25 C25           -3.2653    -3.5083     0.7012 C.ar    
  26 C26           -2.8631    -2.1871     0.7117 C.ar    
  27 H27           -1.7045     2.7569     0.0412 H       
  28 H28            2.5839     0.5777    -0.0201 H       
  29 H29            4.5513     2.0547    -0.0312 H       
  30 H30            4.2607     4.4976    -0.0132 H       
  31 H31            2.0034     5.4758     0.0146 H       
  32 H32            0.0248     4.0138     0.0181 H       
  33 H33           -4.0083    -0.2465     0.0393 H       
  34 H34           -6.0829     1.2082     0.9572 H       
  35 H35           -5.9063     3.6815     0.9698 H       
  36 H36           -5.9231     3.6917    -0.8101 H       
  37 H37           -8.1459     2.6173     0.9848 H       
  38 H38           -8.1793     4.1637     0.1039 H       
  39 H39           -9.3992     2.4021    -1.1440 H       
  40 H40           -7.9628     2.9446    -2.0445 H       
  41 H41           -8.1227     0.4611    -0.2772 H       
  42 H42           -8.1395     0.4713    -2.0570 H       
  43 H43           -5.8998     1.5355    -2.0720 H       
  44 H44           -5.8665    -0.0109    -1.1912 H       
  45 H45           -0.1111    -2.4554    -1.2374 H       
  46 H46           -0.8310    -4.8088    -1.2411 H       
  47 H47           -2.8478    -5.4831    -0.0021 H       
  48 H48           -4.1501    -3.8071     1.2437 H       
  49 H49           -3.4350    -1.4522     1.2586 H       
@<TRIPOS>BOND
   1    1    2 2
   2    1    6 1
   3    1    5 1
   4    2    3 1
   5    3    4 1
   6    3   12 1
   7    4    5 2
   8    4   13 1
   9    5   27 1
  10    6    7 ar
  11    6   11 ar
  12    7    8 ar
  13    7   28 1
  14    8    9 ar
  15    8   29 1
  16    9   10 ar
  17    9   30 1
  18   10   11 ar
  19   10   31 1
  20   11   32 1
  21   12   22 ar
  22   12   26 ar
  23   13   14 am
  24   13   33 1
  25   14   15 1
  26   14   21 2
  27   15   16 1
  28   15   20 1
  29   15   34 1
  30   16   17 1
  31   16   35 1
  32   16   36 1
  33   17   18 1
  34   17   37 1
  35   17   38 1
  36   18   19 1
  37   18   39 1
  38   18   40 1
  39   19   20 1
  40   19   41 1
  41   19   42 1
  42   20   43 1
  43   20   44 1
  44   22   23 ar
  45   22   45 1
  46   23   24 ar
  47   23   46 1
  48   24   25 ar
  49   24   47 1
  50   25   26 ar
  51   25   48 1
  52   26   49 1

#	End of record

