#	Name: ASD01910731
#	Creating user name:	WinNT
#	Creation time:	15. 06. 2019 19:56

#	Modifying user name:	WinNT
#	Modification time:	15. 06. 2019 19:56

#	Program:	/corina/corina34_cracker 3.40 0067  02.08.2006

@<TRIPOS>MOLECULE
ASD01910731
  56   59    0    0    0
SMALL
NO_CHARGES


@<TRIPOS>ATOM
   1 C1            12.4103    -2.3106     4.1831 C.ar    
   2 N2            12.9567    -2.4716     2.9896 N.ar    
   3 C3            12.2830    -2.1424     1.9038 C.ar    
   4 C4            10.9948    -1.6247     2.0164 C.ar    
   5 N5            10.4506    -1.4648     3.2158 N.ar    
   6 C6            11.1324    -1.7971     4.2988 C.ar    
   7 N7            10.2816    -1.2761     0.8753 N.3     
   8 C8             8.9534    -0.7542     1.2236 C.3     
   9 C9             8.2727    -0.2152    -0.0391 C.3     
  10 N10            8.2769    -1.2739    -1.0601 N.am    
  11 C11            9.5515    -1.9411    -1.3656 C.3     
  12 C12           10.1818    -2.4121    -0.0507 C.3     
  13 C13            7.1426    -1.6236    -1.6985 C.2     
  14 C14            7.1893    -2.5995    -2.8054 C.ar    
  15 O15            6.0809    -1.1354    -1.3630 O.2     
  16 C16            6.1812    -3.5599    -2.9340 C.ar    
  17 C17            6.2202    -4.4736    -3.9650 C.ar    
  18 C18            7.2595    -4.4474    -4.8834 C.ar    
  19 C19            8.2776    -3.4871    -4.7648 C.ar    
  20 C20            8.2359    -2.5602    -3.7261 C.ar    
  21 C21            9.3516    -3.4578    -5.7115 C.1     
  22 C22           10.2321    -3.4338    -6.4876 C.1     
  23 C23           11.3062    -3.4045    -7.4343 C.ar    
  24 O24            7.2928    -5.3494    -5.8957 O.3     
  25 C25            6.2253    -6.2975    -5.9552 C.3     
  26 C26           12.3193    -2.4492    -7.3165 C.ar    
  27 C27           13.3522    -2.4244    -8.2308 C.ar    
  28 C28           13.3890    -3.3421    -9.2643 C.ar    
  29 C29           12.3866    -4.2952    -9.3903 C.ar    
  30 C30           11.3485    -4.3342    -8.4758 C.ar    
  31 O31           12.4285    -5.1941   -10.4088 O.3     
  32 C32           13.5319    -5.1003   -11.3120 C.3     
  33 H33           12.9626    -2.5852     5.0696 H       
  34 H34           12.7299    -2.2738     0.9295 H       
  35 H35           10.6900    -1.6672     5.2754 H       
  36 H36            8.3484    -1.5546     1.6496 H       
  37 H37            9.0581     0.0501     1.9519 H       
  38 H38            7.2455     0.0676     0.1910 H       
  39 H39            8.8203     0.6519    -0.4085 H       
  40 H40            9.3697    -2.7993    -2.0126 H       
  41 H41           10.2219    -1.2399    -1.8625 H       
  42 H42           11.1774    -2.8102    -0.2466 H       
  43 H43            9.5597    -3.1894     0.3930 H       
  44 H44            5.3691    -3.5860    -2.2224 H       
  45 H45            5.4387    -5.2132    -4.0582 H       
  46 H46            9.0154    -1.8189    -3.6294 H       
  47 H47            6.3733    -6.9582    -6.8094 H       
  48 H48            6.2111    -6.8867    -5.0383 H       
  49 H49            5.2771    -5.7707    -6.0634 H       
  50 H50           12.2935    -1.7306    -6.5107 H       
  51 H51           14.1345    -1.6855    -8.1391 H       
  52 H52           14.2003    -3.3175    -9.9768 H       
  53 H53           10.5685    -5.0749    -8.5729 H       
  54 H54           13.4437    -5.8737   -12.0750 H       
  55 H55           13.5302    -4.1193   -11.7871 H       
  56 H56           14.4636    -5.2363   -10.7628 H       
@<TRIPOS>BOND
   1    1    2 ar
   2    1    6 ar
   3    1   33 1
   4    2    3 ar
   5    3    4 ar
   6    3   34 1
   7    4    5 ar
   8    4    7 1
   9    5    6 ar
  10    6   35 1
  11    7    8 1
  12    7   12 1
  13    8    9 1
  14    8   36 1
  15    8   37 1
  16    9   10 1
  17    9   38 1
  18    9   39 1
  19   10   11 1
  20   10   13 am
  21   11   12 1
  22   11   40 1
  23   11   41 1
  24   12   42 1
  25   12   43 1
  26   13   14 1
  27   13   15 2
  28   14   16 ar
  29   14   20 ar
  30   16   17 ar
  31   16   44 1
  32   17   18 ar
  33   17   45 1
  34   18   19 ar
  35   18   24 1
  36   19   20 ar
  37   19   21 1
  38   20   46 1
  39   21   22 3
  40   22   23 1
  41   23   26 ar
  42   23   30 ar
  43   24   25 1
  44   25   47 1
  45   25   48 1
  46   25   49 1
  47   26   27 ar
  48   26   50 1
  49   27   28 ar
  50   27   51 1
  51   28   29 ar
  52   28   52 1
  53   29   30 ar
  54   29   31 1
  55   30   53 1
  56   31   32 1
  57   32   54 1
  58   32   55 1
  59   32   56 1

#	End of record

