#	Name: ASD09320016
#	Creating user name:	WinNT
#	Creation time:	15. 06. 2019 21:21

#	Modifying user name:	WinNT
#	Modification time:	15. 06. 2019 21:21

#	Program:	/corina/corina34_cracker 3.40 0067  02.08.2006

@<TRIPOS>MOLECULE
ASD09320016
  55   57    0    0    0
SMALL
NO_CHARGES


@<TRIPOS>ATOM
   1 C1             0.0777     1.4394     0.0093 C.ar    
   2 C2             0.0941     0.0640     0.0982 C.ar    
   3 C3             1.2815    -0.6341    -0.1282 C.ar    
   4 C4             2.4482     0.0642    -0.4440 C.ar    
   5 C5             2.4239     1.4396    -0.5310 C.ar    
   6 C6             1.2406     2.1307    -0.3050 C.ar    
   7 C7             1.3034    -2.1103    -0.0333 C.2     
   8 C8             1.5586    -2.8569    -1.1362 C.2     
   9 C9             1.0470    -2.7720     1.2648 C.ar    
  10 C10            2.0727    -3.4622     1.9131 C.ar    
  11 C11            1.8301    -4.0770     3.1227 C.ar    
  12 C12            0.5670    -4.0108     3.6962 C.ar    
  13 C13           -0.4561    -3.3252     3.0543 C.ar    
  14 C14           -0.2197    -2.7029     1.8473 C.ar    
  15 C15            1.9283    -2.2005    -2.3990 C.ar    
  16 C16            1.4632    -4.3594    -1.0676 C.3     
  17 C17            3.1999    -2.3976    -2.9480 C.ar    
  18 C18            3.5386    -1.7789    -4.1327 C.ar    
  19 C19            2.6245    -0.9647    -4.7786 C.ar    
  20 C20            1.3646    -0.7643    -4.2418 C.ar    
  21 C21            1.0084    -1.3803    -3.0608 C.ar    
  22 O22            1.2205     3.4863    -0.3917 O.3     
  23 C23           -0.0298     4.1336    -0.1473 C.3     
  24 C24            0.1431     5.6472    -0.2891 C.3     
  25 N25            0.4839     5.9728    -1.6804 N.3     
  26 C26            0.6580     7.4210    -1.8546 C.3     
  27 C27            0.0705    -4.8031    -1.5196 C.3     
  28 O28            0.3314    -4.6188     4.8881 O.3     
  29 H29           -0.8416     1.9800     0.1799 H       
  30 H30           -0.8105    -0.4728     0.3431 H       
  31 H31            3.3689    -0.4725    -0.6194 H       
  32 H32            3.3261     1.9806    -0.7752 H       
  33 H33            3.0550    -3.5146     1.4673 H       
  34 H34            2.6231    -4.6111     3.6248 H       
  35 H35           -1.4370    -3.2759     3.5035 H       
  36 H36           -1.0157    -2.1699     1.3487 H       
  37 H37            2.2153    -4.8013    -1.7212 H       
  38 H38            1.6344    -4.6879    -0.0425 H       
  39 H39            3.9144    -3.0323    -2.4450 H       
  40 H40            4.5200    -1.9297    -4.5576 H       
  41 H41            2.8959    -0.4829    -5.7062 H       
  42 H42            0.6572    -0.1269    -4.7514 H       
  43 H43            0.0247    -1.2232    -2.6434 H       
  44 H44           -0.7676     3.7830    -0.8690 H       
  45 H45           -0.3690     3.8996     0.8618 H       
  46 H46           -0.7867     6.1462    -0.0165 H       
  47 H47            0.9433     5.9847     0.3695 H       
  48 H48            1.3074     5.4713    -1.9779 H       
  49 H49           -0.2683     7.9324    -1.5928 H       
  50 H50            1.4618     7.7709    -1.2068 H       
  51 H51            0.9097     7.6344    -2.8935 H       
  52 H52           -0.6846    -4.3079    -0.9092 H       
  53 H53           -0.0747    -4.5344    -2.5660 H       
  54 H54           -0.0214    -5.8833    -1.4058 H       
  55 H55            0.4941    -4.0546     5.6564 H       
@<TRIPOS>BOND
   1    1    2 ar
   2    1    6 ar
   3    1   29 1
   4    2    3 ar
   5    2   30 1
   6    3    4 ar
   7    3    7 1
   8    4    5 ar
   9    4   31 1
  10    5    6 ar
  11    5   32 1
  12    6   22 1
  13    7    8 2
  14    7    9 1
  15    8   15 1
  16    8   16 1
  17    9   10 ar
  18    9   14 ar
  19   10   11 ar
  20   10   33 1
  21   11   12 ar
  22   11   34 1
  23   12   13 ar
  24   12   28 1
  25   13   14 ar
  26   13   35 1
  27   14   36 1
  28   15   17 ar
  29   15   21 ar
  30   16   27 1
  31   16   37 1
  32   16   38 1
  33   17   18 ar
  34   17   39 1
  35   18   19 ar
  36   18   40 1
  37   19   20 ar
  38   19   41 1
  39   20   21 ar
  40   20   42 1
  41   21   43 1
  42   22   23 1
  43   23   24 1
  44   23   44 1
  45   23   45 1
  46   24   25 1
  47   24   46 1
  48   24   47 1
  49   25   26 1
  50   25   48 1
  51   26   49 1
  52   26   50 1
  53   26   51 1
  54   27   52 1
  55   27   53 1
  56   27   54 1
  57   28   55 1

#	End of record

