#	Name: ASD01916304
#	Creating user name:	WinNT
#	Creation time:	15. 06. 2019 20:07

#	Modifying user name:	WinNT
#	Modification time:	15. 06. 2019 20:07

#	Program:	/corina/corina34_cracker 3.40 0067  02.08.2006

@<TRIPOS>MOLECULE
ASD01916304
  46   47    0    0    0
SMALL
NO_CHARGES


@<TRIPOS>ATOM
   1 C1            -0.1288     1.1619    -0.3484 C.ar    
   2 C2            -0.0671    -0.2226    -0.3592 C.ar    
   3 C3             1.1566    -0.8623    -0.3140 C.ar    
   4 C4             2.3322    -0.1093    -0.2574 C.ar    
   5 C5             2.2607     1.2868    -0.2470 C.ar    
   6 C6             1.0325     1.9122    -0.2924 C.ar    
   7 F7            -1.2056    -0.9479    -0.4135 F       
   8 C8             3.6045    -0.7647    -0.2098 C.1     
   9 C9             4.6476    -1.3020    -0.1708 C.1     
  10 C10            5.9199    -1.9574    -0.1232 C.ar    
  11 C11            7.1034    -1.2090    -0.0664 C.ar    
  12 N12            8.2715    -1.8058    -0.0226 N.ar    
  13 C13            8.3821    -3.1299    -0.0298 C.ar    
  14 C14            7.2495    -3.9434    -0.0847 C.ar    
  15 C15            5.9995    -3.3573    -0.1270 C.ar    
  16 C16            9.7241    -3.7501     0.0205 C.2     
  17 O17            9.8326    -4.9567     0.1191 O.2     
  18 N18           10.8264    -2.9773    -0.0429 N.am    
  19 C19           12.1555    -3.5916     0.0069 C.3     
  20 C20           13.1680    -2.6730    -0.6801 C.3     
  21 O21           13.2859    -1.4562     0.0599 O.3     
  22 C22           14.5296    -3.3682    -0.7387 C.3     
  23 C23           12.6925    -2.3619    -2.1007 C.3     
  24 C24           12.5656    -3.8020     1.4658 C.3     
  25 C25            7.3885    -5.4440    -0.0927 C.3     
  26 H26           -1.0875     1.6575    -0.3885 H       
  27 H27            1.2043    -1.9412    -0.3220 H       
  28 H28            3.1657     1.8745    -0.2030 H       
  29 H29            0.9769     2.9907    -0.2848 H       
  30 H30            7.0538    -0.1302    -0.0588 H       
  31 H31            5.1058    -3.9623    -0.1695 H       
  32 H32           10.7398    -2.0144    -0.1216 H       
  33 H33           12.1308    -4.5531    -0.5059 H       
  34 H34           13.5837    -1.5777     0.9718 H       
  35 H35           14.4397    -4.2963    -1.3031 H       
  36 H36           15.2509    -2.7138    -1.2281 H       
  37 H37           14.8683    -3.5898     0.2734 H       
  38 H38           11.7225    -1.8666    -2.0589 H       
  39 H39           13.4139    -1.7075    -2.5901 H       
  40 H40           12.6026    -3.2901    -2.6651 H       
  41 H41           13.5545    -4.2591     1.5029 H       
  42 H42           12.5903    -2.8405     1.9786 H       
  43 H43           11.8443    -4.4565     1.9552 H       
  44 H44            7.5016    -5.8039     0.9299 H       
  45 H45            6.4987    -5.8889    -0.5381 H       
  46 H46            8.2656    -5.7245    -0.6758 H       
@<TRIPOS>BOND
   1    1    2 ar
   2    1    6 ar
   3    1   26 1
   4    2    3 ar
   5    2    7 1
   6    3    4 ar
   7    3   27 1
   8    4    5 ar
   9    4    8 1
  10    5    6 ar
  11    5   28 1
  12    6   29 1
  13    8    9 3
  14    9   10 1
  15   10   11 ar
  16   10   15 ar
  17   11   12 ar
  18   11   30 1
  19   12   13 ar
  20   13   14 ar
  21   13   16 1
  22   14   15 ar
  23   14   25 1
  24   15   31 1
  25   16   17 2
  26   16   18 am
  27   18   19 1
  28   18   32 1
  29   19   20 1
  30   19   24 1
  31   19   33 1
  32   20   21 1
  33   20   22 1
  34   20   23 1
  35   21   34 1
  36   22   35 1
  37   22   36 1
  38   22   37 1
  39   23   38 1
  40   23   39 1
  41   23   40 1
  42   24   41 1
  43   24   42 1
  44   24   43 1
  45   25   44 1
  46   25   45 1
  47   25   46 1

#	End of record

