#	Name: ASD01811489
#	Creating user name:	WinNT
#	Creation time:	15. 06. 2019 19:26

#	Modifying user name:	WinNT
#	Modification time:	15. 06. 2019 19:26

#	Program:	/corina/corina34_cracker 3.40 0067  02.08.2006

@<TRIPOS>MOLECULE
ASD01811489
  69   74    0    0    0
SMALL
NO_CHARGES


@<TRIPOS>ATOM
   1 C1             0.5776     0.8217     2.5643 C.3     
   2 C2             0.4466    -0.5294     1.9061 C.2     
   3 C3             1.4773    -1.2064     1.3500 C.2     
   4 C4             2.9018    -0.7099     1.3170 C.3     
   5 C5             2.9057     0.8011     1.5790 C.3     
   6 N6             2.0184     1.0970     2.7138 N.am    
   7 C7            -0.2899    -2.4227     1.0902 C.2     
   8 N8            -0.6716    -1.2888     1.7509 N.pl3   
   9 N9             1.0041    -2.3528     0.8585 N.2     
  10 C10            2.5092     1.6076     3.8605 C.2     
  11 O11            3.6993     1.8285     3.9668 O.2     
  12 O12            1.6809     1.8728     4.8882 O.3     
  13 C13           -1.1795    -3.5390     0.7020 C.ar    
  14 C14           -0.6599    -4.6455     0.0268 C.ar    
  15 C15           -1.4888    -5.6883    -0.3363 C.ar    
  16 C16           -2.8356    -5.6452    -0.0347 C.ar    
  17 C17           -3.3681    -4.5447     0.6401 C.ar    
  18 C18           -2.5359    -3.4913     1.0141 C.ar    
  19 C19            0.8086    -4.7013    -0.3067 C.3     
  20 C20            1.6212    -5.8607     0.2734 C.3     
  21 C21            1.2835    -5.8343    -1.2186 C.3     
  22 C22           -4.8107    -4.4995     0.9616 C.2     
  23 O23           -5.4679    -3.5194     0.6702 O.2     
  24 N24           -5.3968    -5.5451     1.5777 N.am    
  25 C25           -6.8091    -5.4823     1.9781 C.3     
  26 C26           -6.9150    -5.8240     3.4677 C.3     
  27 C27           -6.2482    -7.1772     3.7252 C.3     
  28 C28           -4.7661    -7.0968     3.3523 C.3     
  29 C29           -4.6374    -6.7716     1.8563 C.3     
  30 C30           -6.3803    -7.5325     5.1838 C.ar    
  31 C31           -7.0444    -8.6887     5.5535 C.ar    
  32 C32           -7.1689    -9.0200     6.8868 C.ar    
  33 C33           -6.6226    -8.1857     7.8641 C.ar    
  34 C34           -5.9533    -7.0207     7.4839 C.ar    
  35 C35           -5.8319    -6.7040     6.1467 C.ar    
  36 C36           -6.7485    -8.5231     9.2501 C.1     
  37 N37           -6.8484    -8.7907    10.3496 N.1     
  38 C38            2.2789     2.4214     6.0922 C.3     
  39 H39            0.1169     1.5857     1.9381 H       
  40 H40            0.0994     0.8053     3.5436 H       
  41 H41            3.4828    -1.2157     2.0881 H       
  42 H42            3.3364    -0.9119     0.3381 H       
  43 H43            3.9188     1.1274     1.8142 H       
  44 H44            2.5500     1.3254     0.6920 H       
  45 H45           -1.5670    -1.0681     2.0515 H       
  46 H46           -1.0820    -6.5414    -0.8590 H       
  47 H47           -3.4786    -6.4642    -0.3215 H       
  48 H48           -2.9418    -2.6398     1.5400 H       
  49 H49            1.3061    -3.7361    -0.4019 H       
  50 H50            2.6534    -5.6583     0.5594 H       
  51 H51            1.0936    -6.5831     0.8962 H       
  52 H52            0.5337    -6.5394    -1.5774 H       
  53 H53            2.0934    -5.6146    -1.9142 H       
  54 H54           -7.1935    -4.4771     1.8056 H       
  55 H55           -7.3861    -6.2012     1.3964 H       
  56 H56           -6.4137    -5.0540     4.0541 H       
  57 H57           -7.9650    -5.8752     3.7555 H       
  58 H58           -6.7340    -7.9425     3.1198 H       
  59 H59           -4.2850    -6.3147     3.9397 H       
  60 H60           -4.2867    -8.0538     3.5579 H       
  61 H61           -5.0409    -7.5935     1.2649 H       
  62 H62           -3.5885    -6.6173     1.6034 H       
  63 H63           -7.4664    -9.3331     4.7965 H       
  64 H64           -7.6882    -9.9224     7.1740 H       
  65 H65           -5.5284    -6.3710     8.2347 H       
  66 H66           -5.3110    -5.8054     5.8510 H       
  67 H67            2.7663     3.3676     5.8571 H       
  68 H68            1.5033     2.5881     6.8397 H       
  69 H69            3.0161     1.7204     6.4836 H       
@<TRIPOS>BOND
   1    1    2 1
   2    1    6 1
   3    1   39 1
   4    1   40 1
   5    2    3 2
   6    2    8 1
   7    3    4 1
   8    3    9 1
   9    4    5 1
  10    4   41 1
  11    4   42 1
  12    5    6 1
  13    5   43 1
  14    5   44 1
  15    6   10 am
  16    7    8 1
  17    7    9 2
  18    7   13 1
  19    8   45 1
  20   10   11 2
  21   10   12 1
  22   12   38 1
  23   13   14 ar
  24   13   18 ar
  25   14   15 ar
  26   14   19 1
  27   15   16 ar
  28   15   46 1
  29   16   17 ar
  30   16   47 1
  31   17   18 ar
  32   17   22 1
  33   18   48 1
  34   19   20 1
  35   19   21 1
  36   19   49 1
  37   20   21 1
  38   20   50 1
  39   20   51 1
  40   21   52 1
  41   21   53 1
  42   22   23 2
  43   22   24 am
  44   24   25 1
  45   24   29 1
  46   25   26 1
  47   25   54 1
  48   25   55 1
  49   26   27 1
  50   26   56 1
  51   26   57 1
  52   27   28 1
  53   27   30 1
  54   27   58 1
  55   28   29 1
  56   28   59 1
  57   28   60 1
  58   29   61 1
  59   29   62 1
  60   30   31 ar
  61   30   35 ar
  62   31   32 ar
  63   31   63 1
  64   32   33 ar
  65   32   64 1
  66   33   34 ar
  67   33   36 1
  68   34   35 ar
  69   34   65 1
  70   35   66 1
  71   36   37 3
  72   38   67 1
  73   38   68 1
  74   38   69 1

#	End of record

