#	Name: ASD01812983
#	Creating user name:	WinNT
#	Creation time:	15. 06. 2019 19:29

#	Modifying user name:	WinNT
#	Modification time:	15. 06. 2019 19:29

#	Program:	/corina/corina34_cracker 3.40 0067  02.08.2006

@<TRIPOS>MOLECULE
ASD01812983
  41   44    0    0    0
SMALL
NO_CHARGES


@<TRIPOS>ATOM
   1 C1            -0.0166     1.3763     0.0096 C.ar    
   2 C2             0.0021    -0.0041     0.0020 C.ar    
   3 C3             1.2089    -0.6873    -0.0127 C.ar    
   4 C4             2.3943     0.0072    -0.0203 C.ar    
   5 C5             2.3945     1.4054    -0.0132 C.ar    
   6 C6             1.1722     2.0915     0.0021 C.ar    
   7 C7             3.8414    -0.4182    -0.0364 C.3     
   8 N8             4.6317     0.8183    -0.0378 N.am    
   9 C9             3.7920     1.8678    -0.0244 C.2     
  10 C10            6.0945     0.8959    -0.0511 C.3     
  11 C11            6.5828     0.9295    -1.4764 C.ar    
  12 O12            1.1519     3.4477     0.0096 O.3     
  13 O13            4.1377     3.0336    -0.0222 O.2     
  14 C14            6.7469     2.1394    -2.1338 C.ar    
  15 C15            7.1982     2.1227    -3.4442 C.ar    
  16 C16            7.4682     0.9078    -4.0486 C.ar    
  17 N17            7.3003    -0.2245    -3.3916 N.ar    
  18 C18            6.8780    -0.2448    -2.1424 C.ar    
  19 C19           -0.0569     4.0673     0.0244 C.ar    
  20 Cl20           8.0335     0.8722    -5.6896 Cl      
  21 C21           -0.6628     4.3773     1.2374 C.ar    
  22 C22           -1.8904     5.0065     1.2563 C.ar    
  23 C23           -2.5249     5.3329     0.0547 C.ar    
  24 C24           -1.9130     5.0203    -1.1622 C.ar    
  25 C25           -0.6831     4.3954    -1.1734 C.ar    
  26 F26           -0.0887     4.0970    -2.3494 F       
  27 F27           -0.0486     4.0614     2.3986 F       
  28 C28           -3.7994     5.9856     0.0704 C.1     
  29 N29           -4.8104     6.5034     0.0828 N.1     
  30 H30           -0.9603     1.9014     0.0169 H       
  31 H31           -0.9272    -0.5543     0.0079 H       
  32 H32            1.2168    -1.7673    -0.0179 H       
  33 H33            4.0688    -1.0072     0.8521 H       
  34 H34            4.0515    -0.9982    -0.9350 H       
  35 H35            6.4150     1.8014     0.4641 H       
  36 H36            6.5093     0.0240     0.4546 H       
  37 H37            6.5278     3.0727    -1.6365 H       
  38 H38            7.3370     3.0462    -3.9867 H       
  39 H39            6.7573    -1.1907    -1.6352 H       
  40 H40           -2.3606     5.2463     2.1985 H       
  41 H41           -2.4007     5.2708    -2.0926 H       
@<TRIPOS>BOND
   1    1    2 ar
   2    1    6 ar
   3    1   30 1
   4    2    3 ar
   5    2   31 1
   6    3    4 ar
   7    3   32 1
   8    4    7 1
   9    4    5 ar
  10    5    6 ar
  11    5    9 1
  12    6   12 1
  13    7    8 1
  14    7   33 1
  15    7   34 1
  16    8    9 am
  17    8   10 1
  18    9   13 2
  19   10   11 1
  20   10   35 1
  21   10   36 1
  22   11   14 ar
  23   11   18 ar
  24   12   19 1
  25   14   15 ar
  26   14   37 1
  27   15   16 ar
  28   15   38 1
  29   16   17 ar
  30   16   20 1
  31   17   18 ar
  32   18   39 1
  33   19   21 ar
  34   19   25 ar
  35   21   22 ar
  36   21   27 1
  37   22   23 ar
  38   22   40 1
  39   23   24 ar
  40   23   28 1
  41   24   25 ar
  42   24   41 1
  43   25   26 1
  44   28   29 3

#	End of record

