#	Name: ASD01882126
#	Creating user name:	WinNT
#	Creation time:	15. 06. 2019 19:44

#	Modifying user name:	WinNT
#	Modification time:	15. 06. 2019 19:44

#	Program:	/corina/corina34_cracker 3.40 0067  02.08.2006

@<TRIPOS>MOLECULE
ASD01882126
  26   28    0    0    0
SMALL
NO_CHARGES


@<TRIPOS>ATOM
   1 C1            -0.0186     1.4613    -0.0195 C.2     
   2 C2             0.0001    -0.0026    -0.0721 C.2     
   3 C3             1.2330    -0.6440    -0.1500 C.2     
   4 C4             2.4027     0.1234    -0.1753 C.2     
   5 C5             2.3528     1.4721    -0.1254 C.2     
   6 N6             1.1706     2.1430    -0.0487 N.pl3   
   7 N7            -1.0032     2.3402     0.0609 N.2     
   8 C8            -0.4983     3.5735     0.0790 C.2     
   9 C9             0.8616     3.4847     0.0125 C.2     
  10 C10           -1.2184    -0.7542    -0.0436 C.1     
  11 N11           -2.1851    -1.3505    -0.0210 N.1     
  12 C12            1.8188     4.6100     0.0099 C.ar    
  13 C13            3.1009     4.4390    -0.5161 C.ar    
  14 C14            3.9894     5.4941    -0.5158 C.ar    
  15 C15            3.6128     6.7197     0.0045 C.ar    
  16 C16            2.3439     6.8961     0.5272 C.ar    
  17 C17            1.4434     5.8512     0.5281 C.ar    
  18 Cl18           1.3184    -2.3767    -0.2145 Cl      
  19 H19            3.3611    -0.3708    -0.2353 H       
  20 H20            3.2753     2.0333    -0.1469 H       
  21 H21           -1.0690     4.4884     0.1397 H       
  22 H22            3.3963     3.4827    -0.9218 H       
  23 H23            4.9814     5.3632    -0.9223 H       
  24 H24            4.3127     7.5423     0.0028 H       
  25 H25            2.0564     7.8554     0.9318 H       
  26 H26            0.4518     5.9914     0.9323 H       
@<TRIPOS>BOND
   1    1    2 1
   2    1    6 1
   3    1    7 2
   4    2    3 2
   5    2   10 1
   6    3    4 1
   7    3   18 1
   8    4    5 2
   9    4   19 1
  10    5    6 1
  11    5   20 1
  12    6    9 1
  13    7    8 1
  14    8    9 2
  15    8   21 1
  16    9   12 1
  17   10   11 3
  18   12   13 ar
  19   12   17 ar
  20   13   14 ar
  21   13   22 1
  22   14   15 ar
  23   14   23 1
  24   15   16 ar
  25   15   24 1
  26   16   17 ar
  27   16   25 1
  28   17   26 1

#	End of record

