#	Name: ASD06610067
#	Creating user name:	WinNT
#	Creation time:	15. 06. 2019 21:07

#	Modifying user name:	WinNT
#	Modification time:	15. 06. 2019 21:07

#	Program:	/corina/corina34_cracker 3.40 0067  02.08.2006

@<TRIPOS>MOLECULE
ASD06610067
 260  260    0    0    0
SMALL
NO_CHARGES


@<TRIPOS>ATOM
   1 C1            -1.6255    12.4233     4.9465 C.2     
   2 O2            -0.9465    11.7546     4.1965 O.2     
   3 N3            -0.0564    14.2346     4.5438 N.3     
   4 C4            -1.3986    13.9099     5.0448 C.3     
   5 C5            -2.4473    14.6424     4.2054 C.3     
   6 C6            -2.2955    16.1519     4.4035 C.3     
   7 C7            -3.3442    16.8845     3.5641 C.3     
   8 N8            -3.1989    18.3298     3.7538 N.pl3   
   9 C9            -4.0378    19.1971     3.0957 C.2     
  10 N10           -4.8915    18.7419     2.2246 N.2     
  11 N11           -3.9751    20.5520     3.3585 N.am    
  12 C12           -3.3253     9.9756     4.3001 C.2     
  13 O13           -3.3411    10.7827     3.3950 O.2     
  14 N14           -2.5867    11.8379     5.6880 N.am    
  15 C15           -2.9173    10.4053     5.6858 C.3     
  16 C16           -4.0931    10.2049     6.6649 C.3     
  17 C17           -4.7298    11.6180     6.7373 C.3     
  18 C18           -3.4764    12.5268     6.6405 C.3     
  19 C19           -4.9588     7.0639     2.8114 C.2     
  20 O20           -5.1366     6.5218     3.8817 O.2     
  21 N21           -3.6725     8.6945     4.0667 N.am    
  22 C22           -4.0691     8.2768     2.7197 C.3     
  23 C23           -2.8211     7.9334     1.9041 C.3     
  24 C24           -1.9825     9.1965     1.6988 C.3     
  25 C25           -1.9933     6.8879     2.6542 C.3     
  26 C26           -6.3703     4.6968     0.4099 C.2     
  27 O27           -5.8054     5.2229    -0.5255 O.2     
  28 N28           -5.5568     6.5815     1.7041 N.am    
  29 C29           -6.3323     5.3404     1.7720 C.3     
  30 C30           -7.7586     5.6545     2.2277 C.3     
  31 C31           -8.3199     3.6197    -1.8241 C.2     
  32 O32           -8.9712     4.4760    -1.2642 O.2     
  33 N33           -7.0322     3.5364     0.2311 N.am    
  34 C34           -7.1629     2.9671    -1.1124 C.3     
  35 C35           -7.4132     1.4615    -1.0062 C.3     
  36 C36           -6.2000     0.7911    -0.4149 C.2     
  37 O37           -5.1925     1.4337    -0.2080 O.2     
  38 N38           -6.2346    -0.5227    -0.1159 N.am    
  39 C39          -10.2835     2.9542    -4.8348 C.2     
  40 O40           -9.7707     1.8672    -4.9966 O.2     
  41 N41           -8.6310     3.2518    -3.0828 N.am    
  42 C42           -9.7557     3.8862    -3.7746 C.3     
  43 C43           -9.2845     5.1870    -4.4278 C.3     
  44 C44          -12.5237     3.2238    -7.7109 C.2     
  45 O45          -12.5780     4.4324    -7.6260 O.2     
  46 N46          -11.3255     3.3288    -5.6032 N.am    
  47 C47          -11.8386     2.4228    -6.6339 C.3     
  48 C48          -12.8399     1.4511    -6.0061 C.3     
  49 C49          -12.1168     0.5525    -5.0008 C.3     
  50 C50          -13.1180    -0.4193    -4.3731 C.3     
  51 N51          -12.4257    -1.2797    -3.4105 N.pl3   
  52 C52          -13.1262    -2.2383    -2.7173 C.2     
  53 N53          -12.5102    -3.0038    -1.8609 N.2     
  54 N54          -14.4764    -2.3894    -2.9274 N.pl3   
  55 C55          -14.7614     2.5119   -10.5125 C.2     
  56 O56          -14.9164     1.3593   -10.1684 O.2     
  57 N57          -13.0760     2.5971    -8.7686 N.am    
  58 C58          -13.7420     3.3758    -9.8156 C.3     
  59 C59          -12.7038     3.8588   -10.8303 C.3     
  60 C60          -11.7416     4.8348   -10.1502 C.3     
  61 C61          -10.6310     5.2214   -11.1289 C.3     
  62 C62          -12.5054     6.0901    -9.7238 C.3     
  63 C63          -16.7271     2.7053   -13.5885 C.2     
  64 O64          -16.1262     3.6845   -13.9770 O.2     
  65 N65          -15.5009     3.0202   -11.5181 N.am    
  66 C66          -16.4919     2.1804   -12.1956 C.3     
  67 C67          -17.8054     2.2082   -11.4115 C.3     
  68 C68          -17.5952     1.5608   -10.0412 C.3     
  69 C69          -18.9087     1.5886    -9.2571 C.3     
  70 N70          -18.7074     0.9687    -7.9451 N.pl3   
  71 C71          -19.7549     0.8789    -7.0592 C.2     
  72 N72          -20.9272     1.3452    -7.3868 N.2     
  73 N73          -19.5660     0.2972    -5.8280 N.pl3   
  74 C74          -19.1480     2.2173   -16.2711 C.2     
  75 O75          -19.8403     1.4341   -15.6560 O.2     
  76 N76          -17.6053     2.0866   -14.4024 N.am    
  77 C77          -17.7539     2.5288   -15.7912 C.3     
  78 C78          -16.7367     1.7986   -16.6704 C.3     
  79 C79          -16.7725     2.3826   -18.0842 C.3     
  80 C80          -16.2029     3.8025   -18.0640 C.3     
  81 C81          -15.9322     1.5093   -19.0181 C.3     
  82 C82          -21.1142     1.3244   -18.5960 C.2     
  83 O83          -20.1193     0.6653   -18.8119 O.2     
  84 N84          -19.6256     2.8090   -17.3839 N.am    
  85 C85          -21.0169     2.5933   -17.7888 C.3     
  86 C86          -21.4903     3.7751   -18.6373 C.3     
  87 C87          -21.5099     5.0426   -17.7805 C.3     
  88 C88          -21.9833     6.2245   -18.6291 C.3     
  89 N89          -22.0021     7.4381   -17.8087 N.pl3   
  90 C90          -22.3962     8.6343   -18.3599 C.2     
  91 N91          -22.7532     8.6887   -19.6123 N.2     
  92 N92          -22.4139     9.7733   -17.5900 N.pl3   
  93 C93          -22.0810    -0.0148   -21.3052 C.2     
  94 O94          -21.8023     1.1113   -21.6430 O.2     
  95 N95          -22.3068     0.9222   -19.0780 N.am    
  96 C96          -22.4014    -0.3113   -19.8628 C.3     
  97 C97          -23.8208    -0.8732   -19.7606 C.3     
  98 C98          -23.9196    -2.1614   -20.5802 C.3     
  99 C99          -24.1460    -1.1742   -18.2962 C.3     
 100 O100         -22.1054    -1.0018   -22.2146 O.3     
 101 C101          -3.1619    21.0132     4.3294 C.2     
 102 O102          -2.4365    20.2473     4.9272 O.2     
 103 C103           3.9233    34.6992    14.9915 C.3     
 104 C104           3.9155    33.2093    14.6438 C.3     
 105 C105           2.9122    32.9537    13.5173 C.3     
 106 C106           2.9044    31.4638    13.1695 C.3     
 107 C107           1.9011    31.2082    12.0430 C.3     
 108 C108           1.8933    29.7183    11.6953 C.3     
 109 C109           0.8900    29.4627    10.5688 C.3     
 110 C110           0.8823    27.9728    10.2211 C.3     
 111 C111          -0.1210    27.7172     9.0946 C.3     
 112 C112          -0.1288    26.2273     8.7468 C.3     
 113 C113          -1.1321    25.9717     7.6203 C.3     
 114 C114          -1.1399    24.4818     7.2726 C.3     
 115 C115          -2.1432    24.2262     6.1461 C.3     
 116 C116          -2.1510    22.7363     5.7984 C.3     
 117 C117          -3.1543    22.4807     4.6719 C.3     
 118 H118           0.6565    13.8145     5.1212 H       
 119 H119           0.0474    13.9545     3.5801 H       
 120 H120          -1.4834    14.2224     6.0856 H       
 121 H121          -2.3055    14.3981     3.1527 H       
 122 H122          -3.4444    14.3333     4.5190 H       
 123 H123          -2.4374    16.3963     5.4563 H       
 124 H124          -1.2985    16.4611     4.0899 H       
 125 H125          -3.2024    16.6401     2.5114 H       
 126 H126          -4.3413    16.5753     3.8777 H       
 127 H127          -2.5106    18.6748     4.3439 H       
 128 H128          -5.5326    19.3429     1.8139 H       
 129 H129          -4.5163    21.1714     2.8443 H       
 130 H130          -2.0550     9.8253     6.0147 H       
 131 H131          -4.8054     9.4808     6.2693 H       
 132 H132          -3.7304     9.8947     7.6449 H       
 133 H133          -5.4042    11.7861     5.8976 H       
 134 H134          -5.2453    11.7661     7.6862 H       
 135 H135          -2.9938    12.6164     7.6137 H       
 136 H136          -3.7503    13.5108     6.2599 H       
 137 H137          -3.6599     8.0489     4.7907 H       
 138 H138          -4.6099     9.0880     2.2323 H       
 139 H139          -3.1191     7.5336     0.9348 H       
 140 H140          -1.5926     9.5338     2.6592 H       
 141 H141          -1.1529     8.9766     1.0268 H       
 142 H142          -2.6045     9.9790     1.2642 H       
 143 H143          -2.5908     5.9881     2.8004 H       
 144 H144          -1.1042     6.6433     2.0731 H       
 145 H145          -1.6953     7.2877     3.6235 H       
 146 H146          -5.4738     7.0561     0.8622 H       
 147 H147          -5.8655     4.6588     2.4830 H       
 148 H148          -8.3356     4.7311     2.2782 H       
 149 H149          -7.7311     6.1201     3.2129 H       
 150 H150          -8.2254     6.3362     1.5166 H       
 151 H151          -7.4220     3.0782     0.9920 H       
 152 H152          -6.2450     3.1442    -1.6729 H       
 153 H153          -8.2765     1.2810    -0.3657 H       
 154 H154          -7.6057     1.0543    -1.9988 H       
 155 H155          -7.0404    -1.0367    -0.2814 H       
 156 H156          -5.4537    -0.9542     0.2647 H       
 157 H157          -8.1101     2.5669    -3.5306 H       
 158 H158         -10.5465     4.1055    -3.0573 H       
 159 H159         -10.1214     5.6591    -4.9426 H       
 160 H160          -8.9028     5.8611    -3.6610 H       
 161 H161          -8.4937     4.9677    -5.1452 H       
 162 H162         -11.7357     4.1982    -5.4739 H       
 163 H163         -11.0115     1.8617    -7.0688 H       
 164 H164         -13.6205     2.0139    -5.4944 H       
 165 H165         -13.2876     0.8361    -6.7867 H       
 166 H166         -11.3361    -0.0104    -5.5125 H       
 167 H167         -11.6690     1.1675    -4.2202 H       
 168 H168         -13.8987     0.1436    -3.8614 H       
 169 H169         -13.5658    -1.0343    -5.1537 H       
 170 H170         -11.4730    -1.1731    -3.2623 H       
 171 H171         -13.0044    -3.6801    -1.3718 H       
 172 H172         -14.9349    -1.8197    -3.5647 H       
 173 H173         -14.9707    -3.0657    -2.4383 H       
 174 H174         -13.0326     1.6304    -8.8365 H       
 175 H175         -14.2399     4.2358    -9.3678 H       
 176 H176         -12.1448     3.0048   -11.2129 H       
 177 H177         -13.2085     4.3617   -11.6552 H       
 178 H178         -11.3033     4.3604    -9.2722 H       
 179 H179         -11.0693     5.6959   -12.0069 H       
 180 H180          -9.9455     5.9168   -10.6444 H       
 181 H181         -10.0868     4.3272   -11.4327 H       
 182 H182         -12.9437     6.5645   -10.6018 H       
 183 H183         -13.2966     5.8146    -9.0265 H       
 184 H184         -11.8199     6.7854    -9.2392 H       
 185 H185         -15.3770     3.9420   -11.7933 H       
 186 H186         -16.1233     1.1561   -12.2508 H       
 187 H187         -18.1281     3.2409   -11.2798 H       
 188 H188         -18.5682     1.6564   -11.9608 H       
 189 H189         -17.2724     0.5280   -10.1730 H       
 190 H190         -16.8323     2.1126    -9.4919 H       
 191 H191         -19.2314     2.6213    -9.1254 H       
 192 H192         -19.6715     1.0368    -9.8065 H       
 193 H193         -17.8350     0.6216    -7.7013 H       
 194 H194         -21.6663     1.2819    -6.7618 H       
 195 H195         -18.6936    -0.0499    -5.5842 H       
 196 H196         -20.3051     0.2338    -5.2030 H       
 197 H197         -18.1390     1.3486   -14.0687 H       
 198 H198         -17.5807     3.6033   -15.8509 H       
 199 H199         -15.7384     1.9230   -16.2511 H       
 200 H200         -16.9850     0.7380   -16.7091 H       
 201 H201         -17.8023     2.4092   -18.4403 H       
 202 H202         -15.1547     3.7693   -17.7670 H       
 203 H203         -16.2850     4.2411   -19.0585 H       
 204 H204         -16.7632     4.4086   -17.3521 H       
 205 H205         -16.3380     0.4977   -19.0325 H       
 206 H206         -15.9577     1.9253   -20.0252 H       
 207 H207         -14.9024     1.4826   -18.6619 H       
 208 H208         -19.0480     3.3777   -17.9168 H       
 209 H209         -21.6445     2.5085   -16.9016 H       
 210 H210         -20.8099     3.9149   -19.4773 H       
 211 H211         -22.4939     3.5744   -19.0121 H       
 212 H212         -22.1903     4.9028   -16.9405 H       
 213 H213         -20.5063     5.2434   -17.4057 H       
 214 H214         -21.3029     6.3642   -19.4691 H       
 215 H215         -22.9869     6.0237   -19.0039 H       
 216 H216         -21.7365     7.3976   -16.8767 H       
 217 H217         -23.0313     9.5327   -20.0011 H       
 218 H218         -22.1482     9.7328   -16.6580 H       
 219 H219         -22.6920    10.6173   -17.9789 H       
 220 H220         -23.1025     1.4494   -18.9053 H       
 221 H221         -21.6922    -1.0432   -19.4761 H       
 222 H222         -24.5300    -0.1413   -20.1473 H       
 223 H223         -23.2104    -2.8933   -20.1935 H       
 224 H224         -24.9308    -2.5616   -20.5075 H       
 225 H225         -23.6879    -1.9469   -21.6235 H       
 226 H226         -24.0757    -0.2564   -17.7124 H       
 227 H227         -25.1573    -1.5744   -18.2235 H       
 228 H228         -23.4369    -1.9061   -17.9096 H       
 229 H229         -21.8928    -0.7631   -23.1273 H       
 230 H230           4.6380    34.8813    15.7940 H       
 231 H231           4.2096    35.2761    14.1121 H       
 232 H232           2.9277    35.0017    15.3161 H       
 233 H233           4.9111    32.9067    14.3192 H       
 234 H234           3.6291    32.6324    15.5232 H       
 235 H235           1.9166    33.2562    13.8419 H       
 236 H236           3.1986    33.5306    12.6379 H       
 237 H237           3.9000    31.1612    12.8449 H       
 238 H238           2.6181    30.8869    14.0489 H       
 239 H239           0.9055    31.5107    12.3676 H       
 240 H240           2.1875    31.7851    11.1636 H       
 241 H241           2.8889    29.4157    11.3707 H       
 242 H242           1.6070    29.1414    12.5747 H       
 243 H243          -0.1055    29.7652    10.8934 H       
 244 H244           1.1764    30.0396     9.6894 H       
 245 H245           1.8779    27.6702     9.8965 H       
 246 H246           0.5959    27.3959    11.1005 H       
 247 H247          -1.1166    28.0197     9.4192 H       
 248 H248           0.1653    28.2941     8.2152 H       
 249 H249           0.8668    25.9247     8.4222 H       
 250 H250          -0.4152    25.6504     9.6262 H       
 251 H251          -2.1277    26.2742     7.9449 H       
 252 H252          -0.8457    26.5486     6.7410 H       
 253 H253          -0.1443    24.1792     6.9480 H       
 254 H254          -1.4262    23.9049     8.1520 H       
 255 H255          -3.1388    24.5287     6.4707 H       
 256 H256          -1.8568    24.8031     5.2667 H       
 257 H257          -1.1554    22.4337     5.4738 H       
 258 H258          -2.4373    22.1594     6.6778 H       
 259 H259          -2.8679    23.0576     3.7925 H       
 260 H260          -4.1498    22.7832     4.9965 H       
@<TRIPOS>BOND
   1    1    2 2
   2    1    4 1
   3    1   14 am
   4    3    4 1
   5    3  118 1
   6    3  119 1
   7    4    5 1
   8    4  120 1
   9    5    6 1
  10    5  121 1
  11    5  122 1
  12    6    7 1
  13    6  123 1
  14    6  124 1
  15    7    8 1
  16    7  125 1
  17    7  126 1
  18    8    9 1
  19    8  127 1
  20    9   10 2
  21    9   11 1
  22   10  128 1
  23   11  101 am
  24   11  129 1
  25   12   13 2
  26   12   21 am
  27   12   15 1
  28   14   15 1
  29   14   18 1
  30   15   16 1
  31   15  130 1
  32   16   17 1
  33   16  131 1
  34   16  132 1
  35   17   18 1
  36   17  133 1
  37   17  134 1
  38   18  135 1
  39   18  136 1
  40   19   20 2
  41   19   22 1
  42   19   28 am
  43   21   22 1
  44   21  137 1
  45   22   23 1
  46   22  138 1
  47   23   24 1
  48   23   25 1
  49   23  139 1
  50   24  140 1
  51   24  141 1
  52   24  142 1
  53   25  143 1
  54   25  144 1
  55   25  145 1
  56   26   27 2
  57   26   29 1
  58   26   33 am
  59   28   29 1
  60   28  146 1
  61   29   30 1
  62   29  147 1
  63   30  148 1
  64   30  149 1
  65   30  150 1
  66   31   32 2
  67   31   34 1
  68   31   41 am
  69   33   34 1
  70   33  151 1
  71   34   35 1
  72   34  152 1
  73   35   36 1
  74   35  153 1
  75   35  154 1
  76   36   37 2
  77   36   38 am
  78   38  155 1
  79   38  156 1
  80   39   40 2
  81   39   42 1
  82   39   46 am
  83   41   42 1
  84   41  157 1
  85   42   43 1
  86   42  158 1
  87   43  159 1
  88   43  160 1
  89   43  161 1
  90   44   45 2
  91   44   47 1
  92   44   57 am
  93   46   47 1
  94   46  162 1
  95   47   48 1
  96   47  163 1
  97   48   49 1
  98   48  164 1
  99   48  165 1
 100   49   50 1
 101   49  166 1
 102   49  167 1
 103   50   51 1
 104   50  168 1
 105   50  169 1
 106   51   52 1
 107   51  170 1
 108   52   53 2
 109   52   54 1
 110   53  171 1
 111   54  172 1
 112   54  173 1
 113   55   56 2
 114   55   58 1
 115   55   65 am
 116   57   58 1
 117   57  174 1
 118   58   59 1
 119   58  175 1
 120   59   60 1
 121   59  176 1
 122   59  177 1
 123   60   61 1
 124   60   62 1
 125   60  178 1
 126   61  179 1
 127   61  180 1
 128   61  181 1
 129   62  182 1
 130   62  183 1
 131   62  184 1
 132   63   64 2
 133   63   66 1
 134   63   76 am
 135   65   66 1
 136   65  185 1
 137   66   67 1
 138   66  186 1
 139   67   68 1
 140   67  187 1
 141   67  188 1
 142   68   69 1
 143   68  189 1
 144   68  190 1
 145   69   70 1
 146   69  191 1
 147   69  192 1
 148   70   71 1
 149   70  193 1
 150   71   72 2
 151   71   73 1
 152   72  194 1
 153   73  195 1
 154   73  196 1
 155   74   75 2
 156   74   77 1
 157   74   84 am
 158   76   77 1
 159   76  197 1
 160   77   78 1
 161   77  198 1
 162   78   79 1
 163   78  199 1
 164   78  200 1
 165   79   80 1
 166   79   81 1
 167   79  201 1
 168   80  202 1
 169   80  203 1
 170   80  204 1
 171   81  205 1
 172   81  206 1
 173   81  207 1
 174   82   83 2
 175   82   85 1
 176   82   95 am
 177   84   85 1
 178   84  208 1
 179   85   86 1
 180   85  209 1
 181   86   87 1
 182   86  210 1
 183   86  211 1
 184   87   88 1
 185   87  212 1
 186   87  213 1
 187   88   89 1
 188   88  214 1
 189   88  215 1
 190   89   90 1
 191   89  216 1
 192   90   91 2
 193   90   92 1
 194   91  217 1
 195   92  218 1
 196   92  219 1
 197   93   94 2
 198   93   96 1
 199   93  100 1
 200   95   96 1
 201   95  220 1
 202   96   97 1
 203   96  221 1
 204   97   98 1
 205   97   99 1
 206   97  222 1
 207   98  223 1
 208   98  224 1
 209   98  225 1
 210   99  226 1
 211   99  227 1
 212   99  228 1
 213  100  229 1
 214  101  102 2
 215  101  117 1
 216  103  104 1
 217  103  230 1
 218  103  231 1
 219  103  232 1
 220  104  105 1
 221  104  233 1
 222  104  234 1
 223  105  106 1
 224  105  235 1
 225  105  236 1
 226  106  107 1
 227  106  237 1
 228  106  238 1
 229  107  108 1
 230  107  239 1
 231  107  240 1
 232  108  109 1
 233  108  241 1
 234  108  242 1
 235  109  110 1
 236  109  243 1
 237  109  244 1
 238  110  111 1
 239  110  245 1
 240  110  246 1
 241  111  112 1
 242  111  247 1
 243  111  248 1
 244  112  113 1
 245  112  249 1
 246  112  250 1
 247  113  114 1
 248  113  251 1
 249  113  252 1
 250  114  115 1
 251  114  253 1
 252  114  254 1
 253  115  116 1
 254  115  255 1
 255  115  256 1
 256  116  117 1
 257  116  257 1
 258  116  258 1
 259  117  259 1
 260  117  260 1

#	End of record

