#	Name: ASD04882424
#	Creating user name:	WinNT
#	Creation time:	15. 06. 2019 20:54

#	Modifying user name:	WinNT
#	Modification time:	15. 06. 2019 20:54

#	Program:	/corina/corina34_cracker 3.40 0067  02.08.2006

@<TRIPOS>MOLECULE
ASD04882424
  75   79    0    0    0
SMALL
NO_CHARGES


@<TRIPOS>ATOM
   1 C1            -0.0150     1.3734    -0.0200 C.ar    
   2 C2            -0.0032    -0.0242    -0.0107 C.ar    
   3 C3            -1.2001    -0.7314    -0.0221 C.ar    
   4 C4            -2.4012    -0.0579    -0.0421 C.ar    
   5 C5            -2.4202     1.3396    -0.0514 C.ar    
   6 C6            -1.2184     2.0531    -0.0342 C.ar    
   7 N7             1.2090    -0.7092     0.0094 N.3     
   8 C8             1.3145    -1.5578     1.2046 C.3     
   9 C9             1.3854    -1.5037    -1.2142 C.3     
  10 C10            2.7601    -2.1760    -1.1890 C.3     
  11 N11            2.8656    -3.0246     0.0061 N.3     
  12 C12            2.6892    -2.2302     1.2298 C.3     
  13 C13           -3.7070     2.0608    -0.0737 C.2     
  14 O14           -3.7225     3.2766    -0.0818 O.2     
  15 N15           -4.8654     1.3719    -0.0851 N.am    
  16 N16            1.1919     2.0847    -0.0090 N.am    
  17 C17            1.2323     3.3355     0.4914 C.2     
  18 O18            0.2075     3.8743     0.8666 O.2     
  19 C19            2.5110     4.0472     0.5837 C.2     
  20 C20            2.6928     5.3111     1.0677 C.2     
  21 C21            4.0654     5.5874     0.9693 C.2     
  22 C22            4.6540     4.4940     0.4363 C.2     
  23 O23            3.7149     3.5659     0.2108 O.3     
  24 C24            4.0717    -3.7061     0.0262 C.ar    
  25 N25            5.2226    -3.0455    -0.0619 N.ar    
  26 C26            4.0985    -5.0970     0.1450 C.ar    
  27 C27            5.3259    -5.7301     0.1602 C.ar    
  28 N28            6.4298    -5.0029     0.0623 N.ar    
  29 C29            6.3712    -3.6906    -0.0432 C.ar    
  30 C30            2.8202    -5.8877     0.2544 C.3     
  31 C31            6.1255     4.3414     0.1491 C.3     
  32 C32           -6.1432     2.0880    -0.1073 C.3     
  33 C33           -7.2933     1.0789    -0.1165 C.3     
  34 C34           -8.6278     1.8268    -0.1396 C.3     
  35 N35           -9.7290     0.8606    -0.1484 N.am    
  36 C36          -10.3146     0.3679     0.9566 C.2     
  37 C37          -10.3386     0.3109    -1.3651 C.3     
  38 C38          -11.1144    -0.9438    -0.9066 C.3     
  39 C39          -11.4049    -0.6093     0.5760 C.3     
  40 O40          -10.0124     0.6633     2.0934 O.2     
  41 H41           -1.1879    -1.8113    -0.0157 H       
  42 H42           -3.3293    -0.6102    -0.0509 H       
  43 H43           -1.2299     3.1330    -0.0410 H       
  44 H44            1.1931    -0.9448     2.0977 H       
  45 H45            0.5368    -2.3211     1.1785 H       
  46 H46            0.6085    -2.2663    -1.2678 H       
  47 H47            1.3156    -0.8512    -2.0846 H       
  48 H48            2.8815    -2.7890    -2.0821 H       
  49 H49            3.5378    -1.4127    -1.1629 H       
  50 H50            3.4661    -1.4675     1.2834 H       
  51 H51            2.7590    -2.8826     2.1002 H       
  52 H52           -4.8530     0.4020    -0.0787 H       
  53 H53            1.9984     1.6770    -0.3614 H       
  54 H54            1.9284     5.9706     1.4513 H       
  55 H55            4.5585     6.5021     1.2638 H       
  56 H56            5.3856    -6.8046     0.2511 H       
  57 H57            7.2902    -3.1286    -0.1211 H       
  58 H58            2.5262    -6.2416    -0.7337 H       
  59 H59            2.9762    -6.7410     0.9145 H       
  60 H60            2.0337    -5.2523     0.6617 H       
  61 H61            6.6247     3.9227     1.0230 H       
  62 H62            6.2623     3.6743    -0.7019 H       
  63 H63            6.5537     5.3169    -0.0813 H       
  64 H64           -6.2212     2.7197     0.7777 H       
  65 H65           -6.1968     2.7081    -1.0021 H       
  66 H66           -7.2153     0.4473    -1.0014 H       
  67 H67           -7.2397     0.4589     0.7784 H       
  68 H68           -8.7057     2.4584     0.7453 H       
  69 H69           -8.6814     2.4469    -1.0345 H       
  70 H70          -11.0220     1.0369    -1.8056 H       
  71 H71           -9.5660     0.0353    -2.0828 H       
  72 H72          -12.0417    -1.0560    -1.4684 H       
  73 H73          -10.4968    -1.8377    -0.9936 H       
  74 H74          -11.3426    -1.5084     1.1892 H       
  75 H75          -12.3857    -0.1446     0.6772 H       
@<TRIPOS>BOND
   1    1    2 ar
   2    1   16 1
   3    1    6 ar
   4    2    3 ar
   5    2    7 1
   6    3    4 ar
   7    3   41 1
   8    4    5 ar
   9    4   42 1
  10    5    6 ar
  11    5   13 1
  12    6   43 1
  13    7    8 1
  14    7    9 1
  15    8   12 1
  16    8   44 1
  17    8   45 1
  18    9   10 1
  19    9   46 1
  20    9   47 1
  21   10   11 1
  22   10   48 1
  23   10   49 1
  24   11   12 1
  25   11   24 1
  26   12   50 1
  27   12   51 1
  28   13   14 2
  29   13   15 am
  30   15   32 1
  31   15   52 1
  32   16   17 am
  33   16   53 1
  34   17   18 2
  35   17   19 1
  36   19   20 2
  37   19   23 1
  38   20   21 1
  39   20   54 1
  40   21   22 2
  41   21   55 1
  42   22   23 1
  43   22   31 1
  44   24   25 ar
  45   24   26 ar
  46   25   29 ar
  47   26   27 ar
  48   26   30 1
  49   27   28 ar
  50   27   56 1
  51   28   29 ar
  52   29   57 1
  53   30   58 1
  54   30   59 1
  55   30   60 1
  56   31   61 1
  57   31   62 1
  58   31   63 1
  59   32   33 1
  60   32   64 1
  61   32   65 1
  62   33   34 1
  63   33   66 1
  64   33   67 1
  65   34   35 1
  66   34   68 1
  67   34   69 1
  68   35   36 am
  69   35   37 1
  70   36   40 2
  71   36   39 1
  72   37   38 1
  73   37   70 1
  74   37   71 1
  75   38   39 1
  76   38   72 1
  77   38   73 1
  78   39   74 1
  79   39   75 1

#	End of record

