#	Name: ASD08150952
#	Creating user name:	WinNT
#	Creation time:	15. 06. 2019 21:16

#	Modifying user name:	WinNT
#	Modification time:	15. 06. 2019 21:16

#	Program:	/corina/corina34_cracker 3.40 0067  02.08.2006

@<TRIPOS>MOLECULE
ASD08150952
  56   60    0    0    0
SMALL
NO_CHARGES


@<TRIPOS>ATOM
   1 C1            -2.1718    -2.1411     3.8072 C.2     
   2 N2            -1.0501    -2.5292     3.1687 N.am    
   3 O3            -2.6574    -1.0518     3.5744 O.2     
   4 O4            -2.7573    -2.9625     4.6990 O.3     
   5 N5             1.8177    -2.0331     1.3293 N.3     
   6 C6             0.4075    -2.4536     1.1805 C.3     
   7 C7            -0.4164    -1.6379     2.1940 C.3     
   8 C8             0.6061    -0.7152     2.8961 C.3     
   9 C9             1.7732    -0.6539     1.8789 C.3     
  10 N10            0.8971    -0.5502    -0.8656 N.ar    
  11 C11            0.4406     0.1552    -1.8718 C.ar    
  12 C12            1.0722     0.1539    -3.1136 C.ar    
  13 C13            2.1976    -0.5959    -3.3050 C.ar    
  14 C14            2.6846    -1.3515    -2.2216 C.ar    
  15 C15            3.8371    -2.1456    -2.3451 C.ar    
  16 C16            4.2837    -2.8653    -1.2772 C.ar    
  17 C17            3.6139    -2.8274    -0.0580 C.ar    
  18 C18            2.4800    -2.0610     0.1016 C.ar    
  19 C19            1.9929    -1.3044    -0.9866 C.ar    
  20 C20            4.1346    -3.6360     1.1022 C.3     
  21 C21            3.3402    -4.9388     1.2133 C.3     
  22 N22            5.5504    -3.9442     0.8862 N.pl3   
  23 N23            8.5781    -4.3559     0.5475 N.2     
  24 C24            9.8532    -4.1051     0.6161 C.2     
  25 N25           10.0586    -2.8951     1.2093 N.pl3   
  26 C26            8.8277    -2.3761     1.5221 C.ar    
  27 N27            8.3996    -1.2573     2.0975 N.ar    
  28 C28            7.1121    -1.0381     2.2630 C.ar    
  29 N29            6.1907    -1.9007     1.8752 N.ar    
  30 C30            6.5234    -3.0467     1.2900 C.ar    
  31 C31            7.8860    -3.3258     1.0909 C.ar    
  32 Cl32           4.6907    -2.2103    -3.8554 Cl      
  33 C33           -3.9624    -2.4787     5.3486 C.3     
  34 H34           -0.6625    -3.3988     3.3546 H       
  35 H35            0.0627    -2.2447     0.1678 H       
  36 H36            0.3127    -3.5179     1.3957 H       
  37 H37           -1.1702    -1.0435     1.6777 H       
  38 H38            0.1833     0.2763     3.0582 H       
  39 H39            0.9377    -1.1529     3.8377 H       
  40 H40            2.7091    -0.4097     2.3814 H       
  41 H41            1.5589     0.0676     1.0905 H       
  42 H42           -0.4486     0.7527    -1.7346 H       
  43 H43            0.6720     0.7448    -3.9242 H       
  44 H44            2.6997    -0.6090    -4.2610 H       
  45 H45            5.1702    -3.4737    -1.3787 H       
  46 H46            4.0238    -3.0632     2.0230 H       
  47 H47            3.4113    -5.4889     0.2749 H       
  48 H48            3.7482    -5.5454     2.0218 H       
  49 H49            2.2951    -4.7104     1.4222 H       
  50 H50            5.8059    -4.7774     0.4602 H       
  51 H51           10.6336    -4.7594     0.2565 H       
  52 H52           10.9175    -2.4777     1.3795 H       
  53 H53            6.7978    -0.1186     2.7343 H       
  54 H54           -4.7235    -2.2733     4.5958 H       
  55 H55           -4.3309    -3.2358     6.0408 H       
  56 H56           -3.7374    -1.5639     5.8968 H       
@<TRIPOS>BOND
   1    1    2 am
   2    1    3 2
   3    1    4 1
   4    2    7 1
   5    2   34 1
   6    4   33 1
   7    5    6 1
   8    5    9 1
   9    5   18 1
  10    6    7 1
  11    6   35 1
  12    6   36 1
  13    7    8 1
  14    7   37 1
  15    8    9 1
  16    8   38 1
  17    8   39 1
  18    9   40 1
  19    9   41 1
  20   10   11 ar
  21   10   19 ar
  22   11   12 ar
  23   11   42 1
  24   12   13 ar
  25   12   43 1
  26   13   14 ar
  27   13   44 1
  28   14   15 ar
  29   14   19 ar
  30   15   16 ar
  31   15   32 1
  32   16   17 ar
  33   16   45 1
  34   17   18 ar
  35   17   20 1
  36   18   19 ar
  37   20   21 1
  38   20   22 1
  39   20   46 1
  40   21   47 1
  41   21   48 1
  42   21   49 1
  43   22   30 1
  44   22   50 1
  45   23   24 2
  46   23   31 1
  47   24   25 1
  48   24   51 1
  49   25   26 1
  50   25   52 1
  51   26   27 ar
  52   26   31 ar
  53   27   28 ar
  54   28   29 ar
  55   28   53 1
  56   29   30 ar
  57   30   31 ar
  58   33   54 1
  59   33   55 1
  60   33   56 1

#	End of record

