#	Name: ASD01917734
#	Creating user name:	WinNT
#	Creation time:	15. 06. 2019 20:09

#	Modifying user name:	WinNT
#	Modification time:	15. 06. 2019 20:09

#	Program:	/corina/corina34_cracker 3.40 0067  02.08.2006

@<TRIPOS>MOLECULE
ASD01917734
  45   48    0    0    0
SMALL
NO_CHARGES


@<TRIPOS>ATOM
   1 C1            -0.1316     1.2272     0.8111 C.ar    
   2 C2            -0.1284    -0.1578     0.7643 C.ar    
   3 C3            -1.3177    -0.8551     0.6460 C.ar    
   4 C4            -2.5156    -0.1758     0.5739 C.ar    
   5 C5            -2.5280     1.2211     0.6203 C.ar    
   6 C6            -1.3251     1.9202     0.7450 C.ar    
   7 C7            -3.7687     1.9322     0.5453 C.1     
   8 C8            -4.7859     2.5152     0.4838 C.1     
   9 C9            -6.0266     3.2263     0.4088 C.ar    
  10 C10           -6.0571     4.6265     0.4539 C.ar    
  11 N11           -7.2223     5.2438     0.3813 N.ar    
  12 C12           -8.3501     4.5580     0.2674 C.ar    
  13 N13           -8.3645     3.2340     0.2213 N.ar    
  14 C14           -7.2422     2.5407     0.2824 C.ar    
  15 N15           -9.5527     5.2473     0.1947 N.am    
  16 C16           -9.6856     6.5793     0.2293 C.2     
  17 N17          -10.9534     7.0014     0.1423 N.am    
  18 C18          -11.8460     5.8389     0.0315 C.3     
  19 C19          -10.8800     4.6300     0.0613 C.3     
  20 C20          -12.5012     5.8318    -1.3641 C.3     
  21 C21          -11.4977     5.0581    -2.2541 C.3     
  22 C22          -10.9960     3.9454    -1.3153 C.3     
  23 H23          -12.5759     5.8055     0.8403 H       
  24 H24          -11.0950     3.9533     0.8883 H       
  25 C25          -11.3832     8.4019     0.1560 C.3     
  26 O26           -8.7404     7.3371     0.3312 O.2     
  27 C27          -11.6450     8.8410     1.5980 C.3     
  28 F28            1.0337     1.9008     0.9270 F       
  29 H29            0.8066    -0.6953     0.8200 H       
  30 H30           -1.3077    -1.9344     0.6098 H       
  31 H31           -3.4426    -0.7222     0.4813 H       
  32 H32           -1.3273     2.9996     0.7816 H       
  33 H33           -5.1418     5.1922     0.5470 H       
  34 H34           -7.2617     1.4616     0.2439 H       
  35 H35          -13.4601     5.3143    -1.3323 H       
  36 H36          -12.6288     6.8504    -1.7304 H       
  37 H37          -12.0005     4.6306    -3.1216 H       
  38 H38          -10.6762     5.7048    -2.5621 H       
  39 H39          -10.0210     3.5829    -1.6409 H       
  40 H40          -11.7146     3.1267    -1.2764 H       
  41 H41          -10.6019     9.0260    -0.2777 H       
  42 H42          -12.2979     8.5069    -0.4275 H       
  43 H43          -12.4773     8.2680     2.0069 H       
  44 H44          -10.7528     8.6651     2.1990 H       
  45 H45          -11.8914     9.9026     1.6155 H       
@<TRIPOS>BOND
   1    1    2 ar
   2    1   28 1
   3    1    6 ar
   4    2    3 ar
   5    2   29 1
   6    3    4 ar
   7    3   30 1
   8    4    5 ar
   9    4   31 1
  10    5    6 ar
  11    5    7 1
  12    6   32 1
  13    7    8 3
  14    8    9 1
  15    9   10 ar
  16    9   14 ar
  17   10   11 ar
  18   10   33 1
  19   11   12 ar
  20   12   13 ar
  21   12   15 1
  22   13   14 ar
  23   14   34 1
  24   15   16 am
  25   15   19 1
  26   16   17 am
  27   16   26 2
  28   17   18 1
  29   17   25 1
  30   18   19 1
  31   18   20 1
  32   18   23 1
  33   19   24 1
  34   19   22 1
  35   20   21 1
  36   20   35 1
  37   20   36 1
  38   21   22 1
  39   21   37 1
  40   21   38 1
  41   22   39 1
  42   22   40 1
  43   25   27 1
  44   25   41 1
  45   25   42 1
  46   27   43 1
  47   27   44 1
  48   27   45 1

#	End of record

