#	Name: ASD01910090
#	Creating user name:	WinNT
#	Creation time:	15. 06. 2019 19:55

#	Modifying user name:	WinNT
#	Modification time:	15. 06. 2019 19:55

#	Program:	/corina/corina34_cracker 3.40 0067  02.08.2006

@<TRIPOS>MOLECULE
ASD01910090
  30   31    0    0    0
SMALL
NO_CHARGES


@<TRIPOS>ATOM
   1 C1            -0.0173     1.4278     0.0099 C.ar    
   2 C2             0.0021    -0.0041     0.0020 C.1     
   3 C3             0.0180    -1.1779    -0.0044 C.1     
   4 C4             0.0374    -2.6098    -0.0123 C.ar    
   5 C5            -1.1615    -3.3277    -0.0047 C.ar    
   6 C6            -1.1382    -4.7072    -0.0123 C.ar    
   7 C7             0.0680    -5.3829    -0.0269 C.ar    
   8 C8             1.2650    -4.6785    -0.0346 C.ar    
   9 C9             1.2548    -3.2945    -0.0334 C.ar    
  10 C10            1.1858     2.1378     0.0022 C.ar    
  11 C11            1.1496     3.5206     0.0100 C.ar    
  12 C12           -0.0868     4.1516     0.0252 C.ar    
  13 C13           -1.2400     3.3877     0.0321 C.ar    
  14 N14           -1.1806     2.0722     0.0189 N.ar    
  15 C15           -0.1719     5.6562     0.0346 C.3     
  16 O16            2.4472    -5.3488    -0.0485 O.3     
  17 C17            2.3835    -6.7764    -0.0546 C.3     
  18 H18           -2.1055    -2.8032     0.0074 H       
  19 H19           -2.0654    -5.2611    -0.0064 H       
  20 H20            0.0794    -6.4628    -0.0321 H       
  21 H21            2.1850    -2.7458    -0.0393 H       
  22 H22            2.1306     1.6146    -0.0093 H       
  23 H23            2.0631     4.0966     0.0047 H       
  24 H24           -2.2027     3.8770     0.0439 H       
  25 H25           -0.2020     6.0248    -0.9908 H       
  26 H26           -1.0761     5.9657     0.5587 H       
  27 H27            0.7009     6.0663     0.5426 H       
  28 H28            1.8622    -7.1207     0.8386 H       
  29 H29            1.8459    -7.1123    -0.9413 H       
  30 H30            3.3939    -7.1851    -0.0658 H       
@<TRIPOS>BOND
   1    1    2 1
   2    1   10 ar
   3    1   14 ar
   4    2    3 3
   5    3    4 1
   6    4    5 ar
   7    4    9 ar
   8    5    6 ar
   9    5   18 1
  10    6    7 ar
  11    6   19 1
  12    7    8 ar
  13    7   20 1
  14    8    9 ar
  15    8   16 1
  16    9   21 1
  17   10   11 ar
  18   10   22 1
  19   11   12 ar
  20   11   23 1
  21   12   13 ar
  22   12   15 1
  23   13   14 ar
  24   13   24 1
  25   15   25 1
  26   15   26 1
  27   15   27 1
  28   16   17 1
  29   17   28 1
  30   17   29 1
  31   17   30 1

#	End of record

