#	Name: ASD01813724
#	Creating user name:	WinNT
#	Creation time:	15. 06. 2019 19:31

#	Modifying user name:	WinNT
#	Modification time:	15. 06. 2019 19:31

#	Program:	/corina/corina34_cracker 3.40 0067  02.08.2006

@<TRIPOS>MOLECULE
ASD01813724
  60   64    0    0    0
SMALL
NO_CHARGES


@<TRIPOS>ATOM
   1 C1            -1.0635    -8.7451    -4.9909 C.3     
   2 N2            -1.2253    -8.9254    -3.5460 N.pl3   
   3 C3            -1.9238    -9.9118    -2.9438 C.2     
   4 C4            -1.8331    -9.7314    -1.6082 C.2     
   5 C5            -1.0459    -8.5861    -1.3797 C.2     
   6 N6            -0.6774    -8.1079    -2.5493 N.2     
   7 C7            -0.6892    -8.0220    -0.0540 C.ar    
   8 C8            -1.1386    -8.6382     1.1119 C.ar    
   9 C9            -0.8035    -8.1096     2.3421 C.ar    
  10 C10           -0.0234    -6.9700     2.4187 C.ar    
  11 C11            0.3392    -6.3975     3.7647 C.3     
  12 C12            1.6846    -6.9269     4.1898 C.ar    
  13 C13            2.3273    -7.9011     3.4509 C.ar    
  14 C14            3.5745    -8.3736     3.8689 C.ar    
  15 N15            4.1516    -7.9025     4.9640 N.ar    
  16 C16            3.5703    -6.9679     5.7022 C.ar    
  17 C17            3.9497    -6.2682     6.9327 C.2     
  18 C18            2.9547    -5.4141     7.2223 C.2     
  19 N19            1.9684    -5.5076     6.2801 N.pl3   
  20 C20            0.7313    -4.7230     6.2764 C.3     
  21 C21            2.3129    -6.4418     5.3340 C.ar    
  22 C22            4.2613    -9.4178     3.0751 C.2     
  23 O23            3.7403    -9.8571     2.0689 O.2     
  24 N24            5.4642    -9.8811     3.4685 N.am    
  25 C25            6.1438   -10.9143     2.6831 C.3     
  26 H26            5.4056   -11.5977     2.2633 H       
  27 C27            6.9369   -10.2573     1.5492 C.3     
  28 C28            7.7059   -11.3366     0.7828 C.3     
  29 O29            8.5623   -12.0406     1.6845 O.3     
  30 C30            7.8719   -12.7144     2.7388 C.3     
  31 C31            7.1079   -11.6918     3.5843 C.3     
  32 H32            7.8143   -11.0006     4.0440 H       
  33 O33            6.3686   -12.3687     4.6028 O.3     
  34 C34            0.4255    -6.3542     1.2643 C.ar    
  35 C35            0.1012    -6.8776     0.0291 C.ar    
  36 H36           -0.1815    -9.2895    -5.3284 H       
  37 H37           -1.9452    -9.1269    -5.5056 H       
  38 H38           -0.9434    -7.6849    -5.2136 H       
  39 H39           -2.4608   -10.7052    -3.4424 H       
  40 H40           -2.2841   -10.3547    -0.8502 H       
  41 H41           -1.7484    -9.5276     1.0532 H       
  42 H42           -1.1514    -8.5865     3.2465 H       
  43 H43            0.3812    -5.3104     3.6978 H       
  44 H44           -0.4135    -6.6877     4.4977 H       
  45 H45            1.8688    -8.2954     2.5560 H       
  46 H46            4.8576    -6.4123     7.4995 H       
  47 H47            2.9363    -4.7508     8.0744 H       
  48 H48            0.8592    -3.8459     5.6419 H       
  49 H49           -0.0853    -5.3339     5.8915 H       
  50 H50            0.4995    -4.4053     7.2930 H       
  51 H51            5.8800    -9.5304     4.2716 H       
  52 H52            6.2508    -9.7486     0.8720 H       
  53 H53            7.6397    -9.5362     1.9665 H       
  54 H54            7.0005   -12.0346     0.3318 H       
  55 H55            8.3057   -10.8700     0.0013 H       
  56 H56            7.1686   -13.4303     2.3134 H       
  57 H57            8.5913   -13.2402     3.3665 H       
  58 H58            6.9171   -12.8824     5.2114 H       
  59 H59            1.0341    -5.4644     1.3298 H       
  60 H60            0.4559    -6.3985    -0.8715 H       
@<TRIPOS>BOND
   1    1    2 1
   2    1   36 1
   3    1   37 1
   4    1   38 1
   5    2    6 1
   6    2    3 1
   7    3    4 2
   8    3   39 1
   9    4    5 1
  10    4   40 1
  11    5    6 2
  12    5    7 1
  13    7   35 ar
  14    7    8 ar
  15    8    9 ar
  16    8   41 1
  17    9   10 ar
  18    9   42 1
  19   10   11 1
  20   10   34 ar
  21   11   12 1
  22   11   43 1
  23   11   44 1
  24   12   21 ar
  25   12   13 ar
  26   13   14 ar
  27   13   45 1
  28   14   15 ar
  29   14   22 1
  30   15   16 ar
  31   16   21 ar
  32   16   17 1
  33   17   18 2
  34   17   46 1
  35   18   19 1
  36   18   47 1
  37   19   20 1
  38   19   21 1
  39   20   48 1
  40   20   49 1
  41   20   50 1
  42   22   23 2
  43   22   24 am
  44   24   25 1
  45   24   51 1
  46   25   26 1
  47   25   31 1
  48   25   27 1
  49   27   28 1
  50   27   52 1
  51   27   53 1
  52   28   29 1
  53   28   54 1
  54   28   55 1
  55   29   30 1
  56   30   31 1
  57   30   56 1
  58   30   57 1
  59   31   32 1
  60   31   33 1
  61   33   58 1
  62   34   35 ar
  63   34   59 1
  64   35   60 1

#	End of record

