#	Name: ASD05430701
#	Creating user name:	WinNT
#	Creation time:	15. 06. 2019 21:00

#	Modifying user name:	WinNT
#	Modification time:	15. 06. 2019 21:00

#	Program:	/corina/corina34_cracker 3.40 0067  02.08.2006

@<TRIPOS>MOLECULE
ASD05430701
  24   24    0    0    0
SMALL
NO_CHARGES


@<TRIPOS>ATOM
   1 C1            -0.0167     1.3779     0.0096 C.ar    
   2 C2             0.0021    -0.0041     0.0020 C.ar    
   3 C3            -1.1873    -0.7132     0.0096 C.ar    
   4 C4            -2.3952    -0.0375     0.0247 C.ar    
   5 C5            -2.4128     1.3466     0.0323 C.ar    
   6 C6            -1.2221     2.0536     0.0305 C.ar    
   7 C7             1.2784     2.1485     0.0014 C.3     
   8 C8             1.7029     2.4170    -1.4438 C.3     
   9 C9             0.6801     3.3372    -2.1132 C.3     
  10 C10            3.0775     3.0887    -1.4552 C.3     
  11 F11           -1.1687    -2.0641     0.0017 F       
  12 F12           -3.5911     2.0074     0.0467 F       
  13 H13            0.9447    -0.5311    -0.0102 H       
  14 H14           -3.3233    -0.5898     0.0303 H       
  15 H15           -1.2356     3.1335     0.0364 H       
  16 H16            1.1405     3.0963     0.5217 H       
  17 H17            2.0506     1.5667     0.5048 H       
  18 H18            1.7546     1.4743    -1.9884 H       
  19 H19            0.6283     4.2799    -1.5686 H       
  20 H20            0.9825     3.5285    -3.1428 H       
  21 H21           -0.2992     2.8587    -2.1051 H       
  22 H22            3.8062     2.4332    -0.9783 H       
  23 H23            3.3799     3.2800    -2.4847 H       
  24 H24            3.0257     4.0315    -0.9105 H       
@<TRIPOS>BOND
   1    1    2 ar
   2    1    7 1
   3    1    6 ar
   4    2    3 ar
   5    2   13 1
   6    3    4 ar
   7    3   11 1
   8    4    5 ar
   9    4   14 1
  10    5    6 ar
  11    5   12 1
  12    6   15 1
  13    7    8 1
  14    7   16 1
  15    7   17 1
  16    8    9 1
  17    8   10 1
  18    8   18 1
  19    9   19 1
  20    9   20 1
  21    9   21 1
  22   10   22 1
  23   10   23 1
  24   10   24 1

#	End of record

