#	Name: ASD03091277
#	Creating user name:	WinNT
#	Creation time:	15. 06. 2019 20:30

#	Modifying user name:	WinNT
#	Modification time:	15. 06. 2019 20:30

#	Program:	/corina/corina34_cracker 3.40 0067  02.08.2006

@<TRIPOS>MOLECULE
ASD03091277
  67   72    0    0    0
SMALL
NO_CHARGES


@<TRIPOS>ATOM
   1 N1            -0.6153     0.9082     0.3329 N.2     
   2 C2            -0.2972    -0.3341     0.0824 C.2     
   3 N3             0.9796    -0.7354    -0.2053 N.am    
   4 C4             1.9887     0.1659    -0.2418 C.2     
   5 C5             1.6535     1.5708     0.0367 C.ar    
   6 C6             2.6207     2.5725     0.0227 C.ar    
   7 C7             2.2488     3.8793     0.2918 C.ar    
   8 C8             0.9187     4.1911     0.5744 C.ar    
   9 C9            -0.0402     3.2197     0.5921 C.ar    
  10 C10            0.3070     1.8918     0.3241 C.ar    
  11 O11            3.1300    -0.1732    -0.4950 O.2     
  12 C12           -1.3674    -1.3554     0.1114 C.ar    
  13 C13           -2.6979    -0.9594     0.2438 C.ar    
  14 C14           -3.6881    -1.9270     0.2688 C.ar    
  15 C15           -3.3153    -3.2588     0.1607 C.ar    
  16 C16           -1.9752    -3.5807     0.0319 C.ar    
  17 N17           -1.0537    -2.6413     0.0057 N.ar    
  18 C18           -1.5661    -5.0264    -0.0853 C.3     
  19 C19            1.2555    -2.1488    -0.4746 C.3     
  20 C20            1.6017    -2.8595     0.8353 C.3     
  21 C21            1.7592    -4.3820     0.6871 C.3     
  22 C22            2.9509    -4.2736     1.6531 C.3     
  23 C23            3.0993    -2.8173     1.1819 C.3     
  24 C24            0.6908    -2.4475     1.9935 C.3     
  25 O25            0.6355    -1.0217     2.0721 O.3     
  26 N26            5.4974     6.4630    -0.7567 N.3     
  27 C27            5.6459     5.3814     0.2290 C.3     
  28 C28            4.5525     4.3394     0.0521 C.3     
  29 N29            3.2118     4.8914     0.2807 N.3     
  30 C30            2.8925     5.9111    -0.7283 C.3     
  31 C31            3.2393     7.2985    -0.2091 C.3     
  32 C32            4.7293     7.5723    -0.1736 C.3     
  33 C33            5.0202     6.0746    -2.0666 C.3     
  34 C34            3.5907     5.5598    -2.0293 C.3     
  35 H35            3.6509     2.3327    -0.1955 H       
  36 H36            0.6440     5.2147     0.7822 H       
  37 H37           -1.0657     3.4763     0.8132 H       
  38 H38           -2.9523     0.0869     0.3259 H       
  39 H39           -4.7273    -1.6510     0.3706 H       
  40 H40           -4.0637    -4.0374     0.1773 H       
  41 H41           -1.5516    -5.3158    -1.1361 H       
  42 H42           -0.5719    -5.1584     0.3417 H       
  43 H43           -2.2788    -5.6505     0.4537 H       
  44 H44            0.3745    -2.6129    -0.9180 H       
  45 H45            2.0951    -2.2299    -1.1649 H       
  46 H46            0.9203    -4.9491     1.0905 H       
  47 H47            2.0394    -4.6962    -0.3184 H       
  48 H48            2.6720    -4.3667     2.7027 H       
  49 H49            3.7934    -4.9089     1.3800 H       
  50 H50            3.7458    -2.7037     0.3117 H       
  51 H51            3.3423    -2.1213     1.9847 H       
  52 H52           -0.3116    -2.8412     1.8252 H       
  53 H53            1.0864    -2.8477     2.9270 H       
  54 H54            0.0746    -0.6886     2.7858 H       
  55 H55            6.6185     4.9070     0.0978 H       
  56 H56            5.5839     5.8000     1.2335 H       
  57 H57            4.6029     3.9434    -0.9622 H       
  58 H58            4.7237     3.5250     0.7560 H       
  59 H59            1.8188     5.8776    -0.9134 H       
  60 H60            2.7628     8.0405    -0.8498 H       
  61 H61            2.8404     7.4039     0.7998 H       
  62 H62            5.0403     7.7151     0.8613 H       
  63 H63            4.9373     8.4830    -0.7352 H       
  64 H64            5.0678     6.9378    -2.7305 H       
  65 H65            5.6678     5.2914    -2.4609 H       
  66 H66            3.6013     4.4759    -2.1442 H       
  67 H67            3.0349     5.9969    -2.8589 H       
@<TRIPOS>BOND
   1    1    2 2
   2    1   10 1
   3    2    3 1
   4    2   12 1
   5    3    4 am
   6    3   19 1
   7    4    5 1
   8    4   11 2
   9    5    6 ar
  10    5   10 ar
  11    6    7 ar
  12    6   35 1
  13    7    8 ar
  14    7   29 1
  15    8    9 ar
  16    8   36 1
  17    9   10 ar
  18    9   37 1
  19   12   13 ar
  20   12   17 ar
  21   13   14 ar
  22   13   38 1
  23   14   15 ar
  24   14   39 1
  25   15   16 ar
  26   15   40 1
  27   16   17 ar
  28   16   18 1
  29   18   41 1
  30   18   42 1
  31   18   43 1
  32   19   20 1
  33   19   44 1
  34   19   45 1
  35   20   21 1
  36   20   23 1
  37   20   24 1
  38   21   22 1
  39   21   46 1
  40   21   47 1
  41   22   23 1
  42   22   48 1
  43   22   49 1
  44   23   50 1
  45   23   51 1
  46   24   25 1
  47   24   52 1
  48   24   53 1
  49   25   54 1
  50   26   27 1
  51   26   32 1
  52   26   33 1
  53   27   28 1
  54   27   55 1
  55   27   56 1
  56   28   29 1
  57   28   57 1
  58   28   58 1
  59   29   30 1
  60   30   31 1
  61   30   34 1
  62   30   59 1
  63   31   32 1
  64   31   60 1
  65   31   61 1
  66   32   62 1
  67   32   63 1
  68   33   34 1
  69   33   64 1
  70   33   65 1
  71   34   66 1
  72   34   67 1

#	End of record

