#	Name: ASD02508197
#	Creating user name:	WinNT
#	Creation time:	15. 06. 2019 20:23

#	Modifying user name:	WinNT
#	Modification time:	15. 06. 2019 20:23

#	Program:	/corina/corina34_cracker 3.40 0067  02.08.2006

@<TRIPOS>MOLECULE
ASD02508197
  51   54    0    0    0
SMALL
NO_CHARGES


@<TRIPOS>ATOM
   1 C1            -0.0168     1.3904     0.0097 C.ar    
   2 C2             0.0021    -0.0041     0.0020 C.ar    
   3 C3            -1.1922    -0.7077     0.0096 C.ar    
   4 C4            -2.3933    -0.0260     0.0248 C.ar    
   5 C5            -2.4110     1.3580     0.0319 C.ar    
   6 C6            -1.2261     2.0677     0.0299 C.ar    
   7 S7            -3.9102    -0.9224     0.0344 S.o2    
   8 N8            -4.6586    -0.6040     1.4770 N.am    
   9 C9            -5.5868     0.5289     1.6120 C.3     
  10 N10            1.3140     1.8071    -0.0008 N.am    
  11 C11            2.0846     0.7014    -0.0141 C.2     
  12 O12            1.3018    -0.3890    -0.0125 O.3     
  13 O13           -4.7245    -0.3441    -0.9763 O.2     
  14 O14           -3.5621    -2.2999     0.0585 O.2     
  15 C15            1.7879     3.1933     0.0021 C.3     
  16 O16            3.3005     0.6929    -0.0257 O.2     
  17 C17           -6.8919     0.0178     2.2314 C.3     
  18 N18           -6.5916    -0.6917     3.4822 N.3     
  19 C19           -3.7268     2.0925     0.0474 C.3     
  20 C20           -4.4174    -1.4503     2.6555 C.3     
  21 C21           -7.4032    -0.6606     6.6312 C.ar    
  22 C22           -7.4829    -1.5481     5.5743 C.ar    
  23 C23           -7.8258    -1.0480     4.1947 C.3     
  24 C24           -5.7644    -1.8802     3.2353 C.3     
  25 C25           -7.0886    -1.1194     7.8967 C.ar    
  26 C26           -6.8538    -2.4655     8.1054 C.ar    
  27 C27           -6.9330    -3.3529     7.0484 C.ar    
  28 C28           -7.2476    -2.8942     5.7829 C.ar    
  29 H29           -1.1834    -1.7877     0.0034 H       
  30 H30           -1.2417     3.1476     0.0359 H       
  31 H31           -5.1468     1.2876     2.2592 H       
  32 H32           -5.7900     0.9548     0.6294 H       
  33 H33            1.9152     3.5316     1.0305 H       
  34 H34            2.7426     3.2521    -0.5205 H       
  35 H35            1.0584     3.8277    -0.5014 H       
  36 H36           -7.5500     0.8611     2.4406 H       
  37 H37           -7.3824    -0.6631     1.5358 H       
  38 H38           -4.0348     2.2644     1.0788 H       
  39 H39           -3.6149     3.0493    -0.4626 H       
  40 H40           -4.4825     1.4951    -0.4627 H       
  41 H41           -3.8479    -2.3323     2.3626 H       
  42 H42           -3.8630    -0.8852     3.4048 H       
  43 H43           -7.5823     0.3917     6.4674 H       
  44 H44           -8.4654    -0.1690     4.2754 H       
  45 H45           -8.3501    -1.8296     3.6448 H       
  46 H46           -5.6048    -2.4134     4.1725 H       
  47 H47           -6.2707    -2.5347     2.5258 H       
  48 H48           -7.0260    -0.4260     8.7224 H       
  49 H49           -6.6074    -2.8239     9.0939 H       
  50 H50           -6.7488    -4.4046     7.2113 H       
  51 H51           -7.3098    -3.5875     4.9572 H       
@<TRIPOS>BOND
   1    1    2 ar
   2    1   10 1
   3    1    6 ar
   4    2    3 ar
   5    2   12 1
   6    3    4 ar
   7    3   29 1
   8    4    5 ar
   9    4    7 1
  10    5    6 ar
  11    5   19 1
  12    6   30 1
  13    7    8 am
  14    7   13 2
  15    7   14 2
  16    8    9 1
  17    8   20 1
  18    9   17 1
  19    9   31 1
  20    9   32 1
  21   10   11 am
  22   10   15 1
  23   11   12 1
  24   11   16 2
  25   15   33 1
  26   15   34 1
  27   15   35 1
  28   17   18 1
  29   17   36 1
  30   17   37 1
  31   18   24 1
  32   18   23 1
  33   19   38 1
  34   19   39 1
  35   19   40 1
  36   20   24 1
  37   20   41 1
  38   20   42 1
  39   21   22 ar
  40   21   25 ar
  41   21   43 1
  42   22   23 1
  43   22   28 ar
  44   23   44 1
  45   23   45 1
  46   24   46 1
  47   24   47 1
  48   25   26 ar
  49   25   48 1
  50   26   27 ar
  51   26   49 1
  52   27   28 ar
  53   27   50 1
  54   28   51 1

#	End of record

