#	Name: ASD01883349
#	Creating user name:	WinNT
#	Creation time:	15. 06. 2019 19:46

#	Modifying user name:	WinNT
#	Modification time:	15. 06. 2019 19:46

#	Program:	/corina/corina34_cracker 3.40 0067  02.08.2006

@<TRIPOS>MOLECULE
ASD01883349
  46   47    0    0    0
SMALL
NO_CHARGES


@<TRIPOS>ATOM
   1 N1            -0.0148     1.3394     0.0124 N.am    
   2 C2            -0.0077     0.0098    -0.1968 C.2     
   3 C3            -1.2252    -0.7111    -0.1961 C.2     
   4 C4            -2.4235    -0.0115     0.0255 C.2     
   5 C5            -2.3659     1.3783     0.2381 C.2     
   6 C6            -1.1737     2.0135     0.2316 C.2     
   7 O7             1.0466    -0.5727    -0.3870 O.2     
   8 C8            -1.2361    -2.1258    -0.4174 C.1     
   9 N9            -1.2447    -3.2481    -0.5930 N.1     
  10 N10           -3.6309    -0.6732     0.0341 N.pl3   
  11 C11            1.2530     2.0733     0.0095 C.3     
  12 C12            1.5624     2.5514    -1.4106 C.3     
  13 C13           -3.9133    -1.6687     1.0711 C.3     
  14 C14            2.8866     3.3179    -1.4135 C.3     
  15 C15            3.2584     3.6880    -2.8508 C.3     
  16 C16            2.7398     4.5927    -0.5803 C.3     
  17 C17           -4.5613    -0.9936     2.2524 C.ar    
  18 C18           -5.9375    -0.8786     2.3135 C.ar    
  19 C19           -6.5319    -0.2593     3.3970 C.ar    
  20 C20           -5.7501     0.2447     4.4196 C.ar    
  21 C21           -4.3739     0.1288     4.3590 C.ar    
  22 C22           -3.7798    -0.4943     3.2775 C.ar    
  23 C23           -4.6332    -0.3817    -0.9939 C.3     
  24 H24           -3.2744     1.9365     0.4101 H       
  25 H25           -1.1420     3.0805     0.3959 H       
  26 H26            1.1761     2.9340     0.6740 H       
  27 H27            2.0529     1.4182     0.3547 H       
  28 H28            1.6393     1.6907    -2.0750 H       
  29 H29            0.7626     3.2065    -1.7557 H       
  30 H30           -4.5861    -2.4279     0.6724 H       
  31 H31           -2.9818    -2.1385     1.3870 H       
  32 H32            3.6696     2.6921    -0.9853 H       
  33 H33            2.4754     4.3138    -3.2790 H       
  34 H34            4.2018     4.2341    -2.8529 H       
  35 H35            3.3630     2.7798    -3.4444 H       
  36 H36            1.9568     5.2185    -1.0085 H       
  37 H37            2.4749     4.3290     0.4436 H       
  38 H38            3.6831     5.1387    -0.5824 H       
  39 H39           -6.5482    -1.2723     1.5145 H       
  40 H40           -7.6070    -0.1688     3.4444 H       
  41 H41           -6.2144     0.7291     5.2658 H       
  42 H42           -3.7631     0.5228     5.1578 H       
  43 H43           -2.7046    -0.5848     3.2301 H       
  44 H44           -4.4288    -0.9812    -1.8810 H       
  45 H45           -5.6254    -0.6233    -0.6127 H       
  46 H46           -4.5911     0.6763    -1.2527 H       
@<TRIPOS>BOND
   1    1    2 am
   2    1   11 1
   3    1    6 1
   4    2    3 1
   5    2    7 2
   6    3    4 2
   7    3    8 1
   8    4    5 1
   9    4   10 1
  10    5    6 2
  11    5   24 1
  12    6   25 1
  13    8    9 3
  14   10   13 1
  15   10   23 1
  16   11   12 1
  17   11   26 1
  18   11   27 1
  19   12   14 1
  20   12   28 1
  21   12   29 1
  22   13   17 1
  23   13   30 1
  24   13   31 1
  25   14   15 1
  26   14   16 1
  27   14   32 1
  28   15   33 1
  29   15   34 1
  30   15   35 1
  31   16   36 1
  32   16   37 1
  33   16   38 1
  34   17   18 ar
  35   17   22 ar
  36   18   19 ar
  37   18   39 1
  38   19   20 ar
  39   19   40 1
  40   20   21 ar
  41   20   41 1
  42   21   22 ar
  43   21   42 1
  44   22   43 1
  45   23   44 1
  46   23   45 1
  47   23   46 1

#	End of record

