#	Name: ASD07300937
#	Creating user name:	WinNT
#	Creation time:	15. 06. 2019 21:10

#	Modifying user name:	WinNT
#	Modification time:	15. 06. 2019 21:10

#	Program:	/corina/corina34_cracker 3.40 0067  02.08.2006

@<TRIPOS>MOLECULE
ASD07300937
  51   55    0    0    0
SMALL
NO_CHARGES


@<TRIPOS>ATOM
   1 N1            -0.0163     1.3527     0.0095 N.am    
   2 C2             0.0021    -0.0041     0.0020 C.2     
   3 N3             1.1018    -0.6986    -0.0118 N.2     
   4 C4             2.3098    -0.1133    -0.0201 C.2     
   5 C5             2.3914     1.2881    -0.0138 C.2     
   6 C6             1.1433     2.0510     0.0022 C.2     
   7 N7             3.5868    -0.5761    -0.0344 N.pl3   
   8 N8             4.4535     0.5241    -0.0369 N.2     
   9 C9             3.7572     1.6272    -0.0249 C.2     
  10 O10            1.1474     3.2693     0.0079 O.2     
  11 C11            3.9887    -1.9848    -0.0448 C.3     
  12 C12            4.8103    -2.2715    -1.3033 C.3     
  13 C13            5.2300    -3.7427    -1.3141 C.3     
  14 C14            6.0753    -4.0411    -0.0742 C.3     
  15 C15            5.2537    -3.7545     1.1842 C.3     
  16 C16            4.8339    -2.2832     1.1951 C.3     
  17 C17           -1.3127    -0.7405     0.0106 C.3     
  18 C18           -1.6647    -1.3567     1.3748 C.3     
  19 C19           -2.1842    -2.5794     0.6002 C.3     
  20 C20           -1.2168    -2.1785    -0.5260 C.3     
  21 C21           -1.7953    -2.3472    -1.9072 C.ar    
  22 N22           -1.0316    -2.8269    -2.8683 N.ar    
  23 F23            6.4591    -5.3864    -0.0842 F       
  24 F24            7.2157    -3.2308    -0.0812 F       
  25 C25           -1.5051    -2.9893    -4.0933 C.ar    
  26 C26           -2.8220    -2.6475    -4.3578 C.ar    
  27 C27           -3.5938    -2.1463    -3.3215 C.ar    
  28 N28           -3.0530    -2.0163    -2.1207 N.ar    
  29 C29           -3.4004    -2.8162    -5.7391 C.3     
  30 H30           -0.8640     1.8242     0.0160 H       
  31 H31            4.1599     2.6293    -0.0236 H       
  32 H32            3.1001    -2.6162    -0.0394 H       
  33 H33            4.2081    -2.0589    -2.1866 H       
  34 H34            5.6988    -1.6401    -1.3087 H       
  35 H35            4.3415    -4.3741    -1.3087 H       
  36 H36            5.8153    -3.9469    -2.2107 H       
  37 H37            4.3651    -4.3858     1.1896 H       
  38 H38            5.8559    -3.9671     2.0675 H       
  39 H39            5.7225    -1.6519     1.1896 H       
  40 H40            4.2486    -2.0790     2.0916 H       
  41 H41           -2.1248    -0.1619    -0.4298 H       
  42 H42           -0.7942    -1.5704     1.9951 H       
  43 H43           -2.4447    -0.8154     1.9103 H       
  44 H44           -1.9368    -3.5314     1.0700 H       
  45 H45           -3.2350    -2.5048     0.3204 H       
  46 H46           -0.2239    -2.6168    -0.4253 H       
  47 H47           -0.8738    -3.3826    -4.8764 H       
  48 H48           -4.6238    -1.8690    -3.4908 H       
  49 H49           -3.8359    -3.8112    -5.8316 H       
  50 H50           -4.1727    -2.0648    -5.9039 H       
  51 H51           -2.6111    -2.6948    -6.4809 H       
@<TRIPOS>BOND
   1    1    2 1
   2    1    6 am
   3    1   30 1
   4    2    3 2
   5    2   17 1
   6    3    4 1
   7    4    5 2
   8    4    7 1
   9    5    6 1
  10    5    9 1
  11    6   10 2
  12    7    8 1
  13    7   11 1
  14    8    9 2
  15    9   31 1
  16   11   12 1
  17   11   16 1
  18   11   32 1
  19   12   13 1
  20   12   33 1
  21   12   34 1
  22   13   14 1
  23   13   35 1
  24   13   36 1
  25   14   15 1
  26   14   23 1
  27   14   24 1
  28   15   16 1
  29   15   37 1
  30   15   38 1
  31   16   39 1
  32   16   40 1
  33   17   18 1
  34   17   20 1
  35   17   41 1
  36   18   19 1
  37   18   42 1
  38   18   43 1
  39   19   20 1
  40   19   44 1
  41   19   45 1
  42   20   21 1
  43   20   46 1
  44   21   22 ar
  45   21   28 ar
  46   22   25 ar
  47   25   26 ar
  48   25   47 1
  49   26   27 ar
  50   26   29 1
  51   27   28 ar
  52   27   48 1
  53   29   49 1
  54   29   50 1
  55   29   51 1

#	End of record

