#	Name: ASD00844722
#	Creating user name:	WinNT
#	Creation time:	15. 06. 2019 18:50

#	Modifying user name:	WinNT
#	Modification time:	15. 06. 2019 18:50

#	Program:	/corina/corina34_cracker 3.40 0067  02.08.2006

@<TRIPOS>MOLECULE
ASD00844722
  91   96    0    0    0
SMALL
NO_CHARGES


@<TRIPOS>ATOM
   1 C1             0.7439     1.1350    -0.2810 C.ar    
   2 C2             0.9543    -0.2037    -0.5773 C.ar    
   3 C3             0.8053    -1.1630     0.4141 C.ar    
   4 C4             0.4480    -0.7830     1.6931 C.ar    
   5 C5             0.2384     0.5522     1.9858 C.ar    
   6 C6             0.3867     1.5100     0.9999 C.ar    
   7 C7             1.0325    -2.6183     0.0956 C.3     
   8 C8             0.6829    -3.4833     1.2877 C.2     
   9 C9             0.2115    -3.0328    -1.1271 C.3     
  10 C10           -1.2388    -2.6944    -0.8965 C.2     
  11 N11           -2.1697    -3.0701    -1.7958 N.am    
  12 O12           -1.5683    -2.0841     0.0984 O.2     
  13 C13           -3.5728    -2.6544    -1.6484 C.3     
  14 C14           -4.0387    -2.0356    -2.9706 C.3     
  15 N15           -3.7823    -2.9796    -4.0666 N.3     
  16 C16           -2.3447    -3.2385    -4.2216 C.3     
  17 C17           -1.8083    -3.9016    -2.9539 C.3     
  18 N18           -4.3631    -2.5030    -5.3114 N.3     
  19 C19           -4.1067    -3.4474    -6.4078 C.3     
  20 C20           -4.8000    -2.9501    -7.6784 C.3     
  21 N21           -4.2995    -1.6098    -8.0139 N.3     
  22 C22           -4.5559    -0.6654    -6.9175 C.3     
  23 C23           -3.8626    -1.1626    -5.6468 C.3     
  24 C24           -4.8862    -1.1282    -9.2716 C.3     
  25 O25           -0.4053    -3.5770     1.8149 O.2     
  26 N26            1.8036    -4.1283     1.6517 N.am    
  27 C27            2.5025    -2.8874    -0.1336 C.ar    
  28 C28            2.8884    -3.8037     0.8419 C.ar    
  29 C29            3.4025    -2.4141    -1.0545 C.ar    
  30 C30            4.7305    -2.8541    -1.0196 C.ar    
  31 C31            5.1256    -3.7751    -0.0419 C.ar    
  32 C32            4.2114    -4.2442     0.8770 C.ar    
  33 F33            6.4053    -4.2061     0.0001 F       
  34 C34            1.5185    -6.7913     2.2855 C.ar    
  35 C35            0.2578    -7.0635     1.7749 C.ar    
  36 C36            2.4879    -7.7759     2.2904 C.ar    
  37 C37            2.2024    -9.0312     1.7866 C.ar    
  38 C38            0.9463    -9.3050     1.2770 C.ar    
  39 C39           -0.0264    -8.3243     1.2702 C.ar    
  40 H40            0.7257   -10.2865     0.8840 H       
  41 O41           -0.6975    -6.0969     1.7693 O.3     
  42 C42           -1.9726    -6.4481     1.2282 C.3     
  43 C43           -2.9098    -5.2414     1.3067 C.3     
  44 C44            5.6776    -2.3666    -1.9767 C.1     
  45 N45            6.4290    -1.9798    -2.7358 N.1     
  46 O46            1.3053    -0.5751    -1.8365 O.3     
  47 C47            1.3663     0.4561    -2.8239 C.3     
  48 C48            1.8612    -0.1327    -4.1465 C.3     
  49 F49            3.0944    -0.7617    -3.9445 F       
  50 F50            0.9326    -1.0672    -4.6173 F       
  51 S51            1.8856    -5.1893     2.9206 S.o2    
  52 O52            3.2462    -5.2217     3.3292 O.2     
  53 O53            0.8190    -4.8507     3.7963 O.2     
  54 H54            0.8636     1.8839    -1.0499 H       
  55 H55            0.3319    -1.5292     2.4651 H       
  56 H56           -0.0415     0.8473     2.9862 H       
  57 H57            0.2225     2.5521     1.2310 H       
  58 H58            0.5737    -2.4994    -2.0059 H       
  59 H59            0.3132    -4.1064    -1.2861 H       
  60 H60           -4.1890    -3.5222    -1.4131 H       
  61 H61           -3.6542    -1.9167    -0.8501 H       
  62 H62           -5.1062    -1.8225    -2.9163 H       
  63 H63           -3.4915    -1.1105    -3.1520 H       
  64 H64           -2.1837    -3.8979    -5.0745 H       
  65 H65           -1.8211    -2.2967    -4.3855 H       
  66 H66           -0.7239    -3.9910    -3.0183 H       
  67 H67           -2.2539    -4.8899    -2.8409 H       
  68 H68           -3.0333    -3.5182    -6.5831 H       
  69 H69           -4.4975    -4.4293    -6.1408 H       
  70 H70           -4.5871    -3.6340    -8.5002 H       
  71 H71           -5.8762    -2.9053    -7.5117 H       
  72 H72           -4.1651     0.3165    -7.1845 H       
  73 H73           -5.6293    -0.5945    -6.7422 H       
  74 H74           -4.0755    -0.4788    -4.8251 H       
  75 H75           -2.7864    -1.2075    -5.8136 H       
  76 H76           -5.9707    -1.0816    -9.1721 H       
  77 H77           -4.4989    -0.1344    -9.4962 H       
  78 H78           -4.6245    -1.8114   -10.0796 H       
  79 H79            3.0868    -1.7041    -1.8046 H       
  80 H80            4.5215    -4.9547     1.6290 H       
  81 H81            3.4696    -7.5645     2.6878 H       
  82 H82            2.9616    -9.7992     1.7907 H       
  83 H83           -1.0074    -8.5389     0.8728 H       
  84 H84           -1.8550    -6.7497     0.1873 H       
  85 H85           -2.3950    -7.2741     1.8003 H       
  86 H86           -3.0274    -4.9398     2.3476 H       
  87 H87           -2.4874    -4.4153     0.7346 H       
  88 H88           -3.8824    -5.5093     0.8940 H       
  89 H89            0.3734     0.8831    -2.9651 H       
  90 H90            2.0532     1.2353    -2.4934 H       
  91 H91            1.9764     0.6660    -4.8792 H       
@<TRIPOS>BOND
   1    1    2 ar
   2    1    6 ar
   3    1   54 1
   4    2    3 ar
   5    2   46 1
   6    3    4 ar
   7    3    7 1
   8    4    5 ar
   9    4   55 1
  10    5    6 ar
  11    5   56 1
  12    6   57 1
  13    7    8 1
  14    7    9 1
  15    7   27 1
  16    8   25 2
  17    8   26 am
  18    9   10 1
  19    9   58 1
  20    9   59 1
  21   10   11 am
  22   10   12 2
  23   11   13 1
  24   11   17 1
  25   13   14 1
  26   13   60 1
  27   13   61 1
  28   14   15 1
  29   14   62 1
  30   14   63 1
  31   15   16 1
  32   15   18 1
  33   16   17 1
  34   16   64 1
  35   16   65 1
  36   17   66 1
  37   17   67 1
  38   18   19 1
  39   18   23 1
  40   19   20 1
  41   19   68 1
  42   19   69 1
  43   20   21 1
  44   20   70 1
  45   20   71 1
  46   21   22 1
  47   21   24 1
  48   22   23 1
  49   22   72 1
  50   22   73 1
  51   23   74 1
  52   23   75 1
  53   24   76 1
  54   24   77 1
  55   24   78 1
  56   26   51 am
  57   26   28 1
  58   27   28 ar
  59   27   29 ar
  60   28   32 ar
  61   29   30 ar
  62   29   79 1
  63   30   31 ar
  64   30   44 1
  65   31   32 ar
  66   31   33 1
  67   32   80 1
  68   34   35 ar
  69   34   36 ar
  70   34   51 1
  71   35   41 1
  72   35   39 ar
  73   36   37 ar
  74   36   81 1
  75   37   38 ar
  76   37   82 1
  77   38   39 ar
  78   38   40 1
  79   39   83 1
  80   41   42 1
  81   42   43 1
  82   42   84 1
  83   42   85 1
  84   43   86 1
  85   43   87 1
  86   43   88 1
  87   44   45 3
  88   46   47 1
  89   47   48 1
  90   47   89 1
  91   47   90 1
  92   48   49 1
  93   48   50 1
  94   48   91 1
  95   51   52 2
  96   51   53 2

#	End of record

