#	Name: ASD01915872
#	Creating user name:	WinNT
#	Creation time:	15. 06. 2019 20:06

#	Modifying user name:	WinNT
#	Modification time:	15. 06. 2019 20:06

#	Program:	/corina/corina34_cracker 3.40 0067  02.08.2006

@<TRIPOS>MOLECULE
ASD01915872
  44   48    0    0    0
SMALL
NO_CHARGES


@<TRIPOS>ATOM
   1 C1            -0.0042     1.4645     0.2221 C.2     
   2 N2             0.0627     0.1122    -0.0291 N.pl3   
   3 C3            -1.1490    -0.6716    -0.2976 C.3     
   4 C4            -2.3294    -0.0468     0.4442 C.3     
   5 N5            -2.4042     1.3989     0.2636 N.am    
   6 C6            -1.2920     2.1726     0.2725 C.2     
   7 C7             1.2780     1.9017     0.4021 C.2     
   8 C8             2.0749     0.7580     0.2578 C.2     
   9 N9             1.2826    -0.2587     0.0096 N.2     
  10 C10            3.5769     0.7048     0.3682 C.3     
  11 O11            4.0807     2.0128     0.6463 O.3     
  12 C12            5.4274     2.1403     0.7771 C.ar    
  13 O13           -1.3552     3.3863     0.3204 O.2     
  14 C14            5.9848     3.3816     1.0474 C.ar    
  15 C15            6.2466     1.0283     0.6462 C.ar    
  16 C16            7.6152     1.1606     0.7796 C.ar    
  17 C17            8.1687     2.3998     1.0434 C.ar    
  18 C18            7.3540     3.5086     1.1799 C.ar    
  19 C19           -3.6446     1.9960     0.0782 C.ar    
  20 C20           -4.8072     1.2467     0.3104 C.ar    
  21 N21           -3.7016     3.2543    -0.3064 N.ar    
  22 C22           -4.8722     3.8702    -0.4974 C.ar    
  23 C23           -6.0838     3.1664    -0.2852 C.ar    
  24 C24           -6.0301     1.8198     0.1325 C.ar    
  25 N25           -4.9176     5.1497    -0.8880 N.ar    
  26 C26           -6.0795     5.7361    -1.0695 C.ar    
  27 C27           -7.2708     5.0401    -0.8592 C.ar    
  28 N28           -7.2525     3.7830    -0.4764 N.ar    
  29 H29           -1.3517    -0.6727    -1.3686 H       
  30 H30           -1.0037    -1.6956     0.0467 H       
  31 H31           -3.2528    -0.4957     0.0783 H       
  32 H32           -2.2319    -0.2643     1.5079 H       
  33 H33            1.6059     2.9095     0.6097 H       
  34 H34            3.8582     0.0280     1.1749 H       
  35 H35            3.9977     0.3455    -0.5709 H       
  36 H36            5.3489     4.2480     1.1538 H       
  37 H37            5.8147     0.0600     0.4406 H       
  38 H38            8.2533     0.2952     0.6782 H       
  39 H39            9.2389     2.5012     1.1473 H       
  40 H40            7.7888     4.4756     1.3856 H       
  41 H41           -4.7330     0.2175     0.6293 H       
  42 H42           -6.9356     1.2562     0.3024 H       
  43 H43           -6.1129     6.7685    -1.3847 H       
  44 H44           -8.2162     5.5389    -1.0131 H       
@<TRIPOS>BOND
   1    1    2 1
   2    1    7 2
   3    1    6 1
   4    2    3 1
   5    2    9 1
   6    3    4 1
   7    3   29 1
   8    3   30 1
   9    4    5 1
  10    4   31 1
  11    4   32 1
  12    5    6 am
  13    5   19 1
  14    6   13 2
  15    7    8 1
  16    7   33 1
  17    8    9 2
  18    8   10 1
  19   10   11 1
  20   10   34 1
  21   10   35 1
  22   11   12 1
  23   12   14 ar
  24   12   15 ar
  25   14   18 ar
  26   14   36 1
  27   15   16 ar
  28   15   37 1
  29   16   17 ar
  30   16   38 1
  31   17   18 ar
  32   17   39 1
  33   18   40 1
  34   19   20 ar
  35   19   21 ar
  36   20   24 ar
  37   20   41 1
  38   21   22 ar
  39   22   23 ar
  40   22   25 ar
  41   23   24 ar
  42   23   28 ar
  43   24   42 1
  44   25   26 ar
  45   26   27 ar
  46   26   43 1
  47   27   28 ar
  48   27   44 1

#	End of record

