#	Name: ASD02560048
#	Creating user name:	WinNT
#	Creation time:	15. 06. 2019 20:24

#	Modifying user name:	WinNT
#	Modification time:	15. 06. 2019 20:24

#	Program:	/corina/corina34_cracker 3.40 0067  02.08.2006

@<TRIPOS>MOLECULE
ASD02560048
  40   41    0    0    0
SMALL
NO_CHARGES


@<TRIPOS>ATOM
   1 C1             0.4231     1.9887    -0.3719 C.ar    
   2 C2             0.4140     0.6084    -0.5306 C.ar    
   3 C3             1.5752    -0.0533    -0.9049 C.ar    
   4 C4             2.7409     0.6650    -1.1192 C.ar    
   5 C5             2.7447     2.0443    -0.9592 C.ar    
   6 C6             1.5866     2.7018    -0.5862 C.ar    
   7 O7             3.8798     0.0197    -1.4853 O.3     
   8 C8             3.8030    -1.3998    -1.6308 C.3     
   9 C9             5.1510    -1.9367    -2.0378 C.2     
  10 C10            5.2464    -2.7780    -3.0374 C.2     
  11 C11            3.9997    -3.3283    -3.6807 C.3     
  12 Cl12           4.2048     2.9443    -1.2270 Cl      
  13 N13           -0.7639    -0.1134    -0.3131 N.am    
  14 C14           -1.5305     0.1559     0.7622 C.2     
  15 C15           -2.7249    -0.6571     1.0360 C.2     
  16 S16           -1.1136     1.4444     1.8095 S.2     
  17 C17           -3.1453    -1.7604     0.2038 C.2     
  18 C18           -4.2509    -2.3511     0.6420 C.2     
  19 S19           -4.8277    -1.5728     2.1054 S.3     
  20 C20           -3.5443    -0.4511     2.1021 C.2     
  21 C21           -3.3480     0.6273     3.1362 C.3     
  22 C22            6.6029    -3.1955    -3.5441 C.3     
  23 H23           -0.4811     2.5049    -0.0851 H       
  24 H24            1.5705    -1.1262    -1.0285 H       
  25 H25            1.5918     3.7747    -0.4627 H       
  26 H26            3.5052    -1.8467    -0.6823 H       
  27 H27            3.0672    -1.6473    -2.3960 H       
  28 H28            6.0385    -1.6279    -1.5053 H       
  29 H29            3.6944    -2.6756    -4.4985 H       
  30 H30            4.2014    -4.3268    -4.0686 H       
  31 H31            3.2015    -3.3806    -2.9402 H       
  32 H32           -1.0292    -0.8079    -0.9362 H       
  33 H33           -2.6148    -2.0728    -0.6835 H       
  34 H34           -4.7290    -3.1933     0.1639 H       
  35 H35           -4.1486     0.5733     3.8740 H       
  36 H36           -2.3874     0.4854     3.6313 H       
  37 H37           -3.3661     1.6034     2.6513 H       
  38 H38            7.3776    -2.6984    -2.9602 H       
  39 H39            6.7108    -4.2757    -3.4459 H       
  40 H40            6.7015    -2.9143    -4.5926 H       
@<TRIPOS>BOND
   1    1    2 ar
   2    1    6 ar
   3    1   23 1
   4    2    3 ar
   5    2   13 1
   6    3    4 ar
   7    3   24 1
   8    4    5 ar
   9    4    7 1
  10    5    6 ar
  11    5   12 1
  12    6   25 1
  13    7    8 1
  14    8    9 1
  15    8   26 1
  16    8   27 1
  17    9   10 2
  18    9   28 1
  19   10   11 1
  20   10   22 1
  21   11   29 1
  22   11   30 1
  23   11   31 1
  24   13   14 am
  25   13   32 1
  26   14   15 1
  27   14   16 2
  28   15   17 1
  29   15   20 2
  30   17   18 2
  31   17   33 1
  32   18   19 1
  33   18   34 1
  34   19   20 1
  35   20   21 1
  36   21   35 1
  37   21   36 1
  38   21   37 1
  39   22   38 1
  40   22   39 1
  41   22   40 1

#	End of record

