#	Name: ASD01916600
#	Creating user name:	WinNT
#	Creation time:	15. 06. 2019 20:07

#	Modifying user name:	WinNT
#	Modification time:	15. 06. 2019 20:07

#	Program:	/corina/corina34_cracker 3.40 0067  02.08.2006

@<TRIPOS>MOLECULE
ASD01916600
  45   48    0    0    0
SMALL
NO_CHARGES


@<TRIPOS>ATOM
   1 C1            -0.0171     1.4110     0.0098 C.ar    
   2 C2             0.0021    -0.0041     0.0020 C.ar    
   3 C3            -1.1982    -0.7183     0.0135 C.ar    
   4 C4            -2.3865    -0.0502     0.0313 C.ar    
   5 C5            -2.4201     1.3531     0.0368 C.ar    
   6 C6            -1.2355     2.0858     0.0308 C.ar    
   7 C7             1.2620     2.1239     0.0014 C.2     
   8 C8             2.4086     1.4291    -0.0149 C.2     
   9 N9             2.4311     0.0544    -0.0253 N.am    
  10 C10            1.3035    -0.6794    -0.0177 C.2     
  11 C11           -3.6792     2.0351     0.0535 C.1     
  12 O12            1.3632    -1.8960    -0.0267 O.2     
  13 C13           -4.7114     2.5943     0.0672 C.1     
  14 C14           -5.9704     3.2764     0.0839 C.ar    
  15 N15           -6.0010     4.6055     0.0891 N.ar    
  16 C16           -7.1384     5.2691     0.1039 C.ar    
  17 C17           -8.3504     4.6026     0.1152 C.ar    
  18 C18           -8.3656     3.2143     0.1102 C.ar    
  19 C19           -7.1581     2.5402     0.0888 C.ar    
  20 C20            3.7323     2.1604    -0.0240 C.3     
  21 C21            4.3532     2.0489    -1.4148 C.3     
  22 C22            5.1933     0.7901    -1.5397 C.3     
  23 C23            4.3550    -0.4724    -1.4355 C.3     
  24 C24            3.7406    -0.6145    -0.0458 C.3     
  25 C25            5.9071     0.8019    -2.8929 C.3     
  26 H26           -1.1850    -1.7982     0.0079 H       
  27 H27           -3.3120    -0.6067     0.0409 H       
  28 H28           -1.2614     3.1654     0.0355 H       
  29 H29            1.2817     3.2037     0.0080 H       
  30 H30           -7.1246     6.3490     0.1077 H       
  31 H31           -9.2769     5.1574     0.1280 H       
  32 H32           -9.2999     2.6726     0.1192 H       
  33 H33           -7.1334     1.4605     0.0840 H       
  34 H34            3.5705     3.2103     0.2201 H       
  35 H35            4.4013     1.7127     0.7110 H       
  36 H36            3.5583     2.0236    -2.1602 H       
  37 H37            4.9840     2.9192    -1.5955 H       
  38 H38            5.9416     0.7843    -0.7471 H       
  39 H39            3.5568    -0.4333    -2.1767 H       
  40 H40            4.9862    -1.3379    -1.6372 H       
  41 H41            4.3971    -0.1526     0.6916 H       
  42 H42            3.6135    -1.6711     0.1898 H       
  43 H43            6.5487     1.6807    -2.9576 H       
  44 H44            6.5133    -0.0986    -2.9918 H       
  45 H45            5.1679     0.8320    -3.6934 H       
@<TRIPOS>BOND
   1    1    2 ar
   2    1    7 1
   3    1    6 ar
   4    2    3 ar
   5    2   10 1
   6    3    4 ar
   7    3   26 1
   8    4    5 ar
   9    4   27 1
  10    5    6 ar
  11    5   11 1
  12    6   28 1
  13    7    8 2
  14    7   29 1
  15    8    9 1
  16    8   20 1
  17    9   10 am
  18    9   24 1
  19   10   12 2
  20   11   13 3
  21   13   14 1
  22   14   15 ar
  23   14   19 ar
  24   15   16 ar
  25   16   17 ar
  26   16   30 1
  27   17   18 ar
  28   17   31 1
  29   18   19 ar
  30   18   32 1
  31   19   33 1
  32   20   21 1
  33   20   34 1
  34   20   35 1
  35   21   22 1
  36   21   36 1
  37   21   37 1
  38   22   23 1
  39   22   25 1
  40   22   38 1
  41   23   24 1
  42   23   39 1
  43   23   40 1
  44   24   41 1
  45   24   42 1
  46   25   43 1
  47   25   44 1
  48   25   45 1

#	End of record

