#	Name: ASD01885730
#	Creating user name:	WinNT
#	Creation time:	15. 06. 2019 19:50

#	Modifying user name:	WinNT
#	Modification time:	15. 06. 2019 19:50

#	Program:	/corina/corina34_cracker 3.40 0067  02.08.2006

@<TRIPOS>MOLECULE
ASD01885730
  54   55    0    0    0
SMALL
NO_CHARGES


@<TRIPOS>ATOM
   1 C1            -0.0160     1.3291     0.0093 C.ar    
   2 C2            -1.2522     2.0239     0.0189 C.ar    
   3 C3            -2.4598     1.2808     0.0210 C.ar    
   4 C4            -2.3703    -0.1044     0.0135 C.ar    
   5 C5            -1.1104    -0.7137     0.0043 C.ar    
   6 N6             0.0021    -0.0041     0.0020 N.ar    
   7 C7             1.1365     3.4282     0.0092 C.ar    
   8 C8            -0.0805     4.1063     0.0248 C.ar    
   9 C9            -1.2606     3.4245     0.0266 C.ar    
  10 C10           -3.7750     1.9611     0.0313 C.ar    
  11 C11           -1.0235    -2.1940    -0.0038 C.2     
  12 C12            2.4228     4.2133     0.0076 C.3     
  13 C13            1.1823     2.0683     0.0019 C.ar    
  14 N14            0.1812    -2.7982    -0.0132 N.am    
  15 O15           -2.0383    -2.8621    -0.0018 O.2     
  16 C16           -4.7577     1.5985    -0.8903 C.ar    
  17 C17           -5.9812     2.2347    -0.8763 C.ar    
  18 C18           -6.2354     3.2328     0.0512 C.ar    
  19 C19           -5.2623     3.5968     0.9685 C.ar    
  20 C20           -4.0376     2.9626     0.9663 C.ar    
  21 F21           -7.4355     3.8531     0.0609 F       
  22 N22            2.8509     4.4547     1.3920 N.3     
  23 C23            4.2119     5.0059     1.4336 C.3     
  24 C24            4.7086     5.0105     2.8564 C.2     
  25 O25            3.9987     4.5956     3.7479 O.2     
  26 C26            1.9046     5.3356     2.0896 C.3     
  27 N27            5.9417     5.4758     3.1382 N.am    
  28 H28           -3.2662    -0.7075     0.0151 H       
  29 H29           -0.0888     5.1862     0.0355 H       
  30 H30           -2.1976     3.9615     0.0335 H       
  31 H31            3.1928     3.6481    -0.5175 H       
  32 H32            2.2656     5.1673    -0.4957 H       
  33 H33            2.1340     1.5579    -0.0092 H       
  34 H34            0.9913    -2.2648    -0.0147 H       
  35 H35            0.2380    -3.7665    -0.0184 H       
  36 H36           -4.5605     0.8212    -1.6137 H       
  37 H37           -6.7425     1.9551    -1.5896 H       
  38 H38           -5.4648     4.3756     1.6888 H       
  39 H39           -3.2799     3.2470     1.6815 H       
  40 H40            4.8715     4.3917     0.8205 H       
  41 H41            4.2030     6.0255     1.0486 H       
  42 H42            0.9188     4.8707     2.1046 H       
  43 H43            2.2454     5.4978     3.1121 H       
  44 H44            1.8475     6.2919     1.5696 H       
  45 H45            6.5095     5.8077     2.4252 H       
  46 H46            6.2615     5.4788     4.0540 H       
  47 C47           12.5114    13.1990     9.9592 C.3     
  48 C48           12.5321    11.6691     9.9508 C.3     
  49 H49           13.5340    13.5763     9.9514 H       
  50 H50           11.9842    13.5601     9.0761 H       
  51 H51           12.0012    13.5505    10.8560 H       
  52 H52           13.0593    11.3081    10.8338 H       
  53 H53           11.5095    11.2919     9.9585 H       
  54 H54           13.0423    11.3176     9.0540 H       
@<TRIPOS>BOND
   1    1    6 ar
   2    1   13 ar
   3    1    2 ar
   4    2    3 ar
   5    2    9 ar
   6    3   10 1
   7    3    4 ar
   8    4    5 ar
   9    4   28 1
  10    5   11 1
  11    5    6 ar
  12    7   12 1
  13    7    8 ar
  14    7   13 ar
  15    8    9 ar
  16    8   29 1
  17    9   30 1
  18   10   16 ar
  19   10   20 ar
  20   11   14 am
  21   11   15 2
  22   12   22 1
  23   12   31 1
  24   12   32 1
  25   13   33 1
  26   14   34 1
  27   14   35 1
  28   16   17 ar
  29   16   36 1
  30   17   18 ar
  31   17   37 1
  32   18   19 ar
  33   18   21 1
  34   19   20 ar
  35   19   38 1
  36   20   39 1
  37   22   23 1
  38   22   26 1
  39   23   24 1
  40   23   40 1
  41   23   41 1
  42   24   25 2
  43   24   27 am
  44   26   42 1
  45   26   43 1
  46   26   44 1
  47   27   45 1
  48   27   46 1
  49   47   48 1
  50   47   49 1
  51   47   50 1
  52   47   51 1
  53   48   52 1
  54   48   53 1
  55   48   54 1

#	End of record

