#	Name: ASD04840058
#	Creating user name:	WinNT
#	Creation time:	15. 06. 2019 20:52

#	Modifying user name:	WinNT
#	Modification time:	15. 06. 2019 20:52

#	Program:	/corina/corina34_cracker 3.40 0067  02.08.2006

@<TRIPOS>MOLECULE
ASD04840058
  57   59    0    0    0
SMALL
NO_CHARGES


@<TRIPOS>ATOM
   1 C1            -0.1973     4.1884     0.8093 C.ar    
   2 C2             0.3123     2.9507     1.2144 C.ar    
   3 C3            -0.5203     1.8897     1.4260 C.ar    
   4 C4            -1.8926     2.0284     1.2394 C.ar    
   5 C5            -2.4171     3.2695     0.8317 C.ar    
   6 C6            -1.5631     4.3519     0.6229 C.ar    
   7 N7            -2.9556     1.1630     1.3704 N.pl3   
   8 C8            -4.1224     1.8081     1.0625 C.2     
   9 C9            -3.8668     3.0828     0.7290 C.2     
  10 C10           -4.8787     4.1245     0.3265 C.3     
  11 C11           -5.2744     3.9127    -1.1362 C.3     
  12 C12            0.7230     5.3305     0.5841 C.ar    
  13 C13            2.0940     5.1720     0.7757 C.ar    
  14 C14            2.9454     6.2376     0.5643 C.ar    
  15 C15            2.4399     7.4611     0.1636 C.ar    
  16 C16            1.0797     7.6242    -0.0276 C.ar    
  17 C17            0.2198     6.5637     0.1749 C.ar    
  18 P18           -6.6136     5.0684    -1.5768 P.3     
  19 O19           -6.1462     6.4600    -1.3887 O.2     
  20 O20           -7.0300     4.8456    -3.1160 O.3     
  21 O21           -7.8885     4.7980    -0.6315 O.3     
  22 P22           -3.8308     4.2189    -2.2066 P.3     
  23 O23           -4.2916     4.5478    -3.5741 O.2     
  24 O24           -2.9772     5.4501    -1.6172 O.3     
  25 O25           -2.9084     2.9001    -2.2538 O.3     
  26 C26           -5.4919     1.1801     1.0934 C.3     
  27 C27           -5.5512     0.0356     0.0797 C.3     
  28 C28           -5.7715     0.6347     2.4953 C.3     
  29 C29           -5.7710     1.7880     3.5006 C.3     
  30 C30           -7.1370    -0.0552     2.5112 C.3     
  31 H31            1.3758     2.8329     1.3612 H       
  32 H32           -0.1129     0.9396     1.7387 H       
  33 H33           -1.9598     5.3064     0.3101 H       
  34 H34           -2.8874     0.2338     1.6403 H       
  35 H35           -5.7624     4.0359     0.9584 H       
  36 H36           -4.4450     5.1174     0.4455 H       
  37 H37           -5.6186     2.8878    -1.2748 H       
  38 H38            2.4897     4.2173     1.0892 H       
  39 H39            4.0083     6.1159     0.7125 H       
  40 H40            3.1097     8.2924    -0.0003 H       
  41 H41            0.6903     8.5818    -0.3402 H       
  42 H42           -0.8416     6.6908     0.0207 H       
  43 H43           -7.7393     5.4283    -3.4199 H       
  44 H44           -8.2485     3.9034    -0.7030 H       
  45 H45           -2.1923     5.6694    -2.1378 H       
  46 H46           -2.6940     2.5388    -1.3829 H       
  47 H47           -6.2412     1.9298     0.8391 H       
  48 H48           -6.5418    -0.4186     0.1020 H       
  49 H49           -5.3520     0.4242    -0.9190 H       
  50 H50           -4.8019    -0.7141     0.3340 H       
  51 H51           -4.9981    -0.0840     2.7664 H       
  52 H52           -6.0742     1.4168     4.4796 H       
  53 H53           -4.7689     2.2117     3.5671 H       
  54 H54           -6.4696     2.5573     3.1715 H       
  55 H55           -7.1373    -0.8768     1.7949 H       
  56 H56           -7.3362    -0.4437     3.5099 H       
  57 H57           -7.9104     0.6635     2.2400 H       
@<TRIPOS>BOND
   1    1    2 ar
   2    1   12 1
   3    1    6 ar
   4    2    3 ar
   5    2   31 1
   6    3    4 ar
   7    3   32 1
   8    4    5 ar
   9    4    7 1
  10    5    6 ar
  11    5    9 1
  12    6   33 1
  13    7    8 1
  14    7   34 1
  15    8    9 2
  16    8   26 1
  17    9   10 1
  18   10   11 1
  19   10   35 1
  20   10   36 1
  21   11   18 1
  22   11   22 1
  23   11   37 1
  24   12   13 ar
  25   12   17 ar
  26   13   14 ar
  27   13   38 1
  28   14   15 ar
  29   14   39 1
  30   15   16 ar
  31   15   40 1
  32   16   17 ar
  33   16   41 1
  34   17   42 1
  35   18   19 2
  36   18   20 1
  37   18   21 1
  38   20   43 1
  39   21   44 1
  40   22   23 2
  41   22   24 1
  42   22   25 1
  43   24   45 1
  44   25   46 1
  45   26   27 1
  46   26   28 1
  47   26   47 1
  48   27   48 1
  49   27   49 1
  50   27   50 1
  51   28   29 1
  52   28   30 1
  53   28   51 1
  54   29   52 1
  55   29   53 1
  56   29   54 1
  57   30   55 1
  58   30   56 1
  59   30   57 1

#	End of record

