#	Name: ASD01940456
#	Creating user name:	WinNT
#	Creation time:	15. 06. 2019 20:12

#	Modifying user name:	WinNT
#	Modification time:	15. 06. 2019 20:12

#	Program:	/corina/corina34_cracker 3.40 0067  02.08.2006

@<TRIPOS>MOLECULE
ASD01940456
  48   49    0    0    0
SMALL
NO_CHARGES


@<TRIPOS>ATOM
   1 C1            -0.0162     1.3410     0.0094 C.2     
   2 N2             0.0021    -0.0041     0.0020 N.am    
   3 C3             1.2637    -0.4708    -0.0125 C.2     
   4 C4             2.1916     0.6799    -0.0152 C.ar    
   5 C5             3.5709     0.8108    -0.0273 C.ar    
   6 C6             4.1413     2.0742    -0.0256 C.ar    
   7 C7             3.3438     3.2031    -0.0119 C.ar    
   8 C8             1.9626     3.0875     0.0003 C.ar    
   9 C9             1.3783     1.8310    -0.0013 C.ar    
  10 O10           -1.0118     2.0364     0.0181 O.2     
  11 O11            1.5863    -1.6416    -0.0213 O.2     
  12 O12           -1.1544    -0.8211     0.0091 O.3     
  13 C13           -1.6421    -1.1495    -1.2934 C.3     
  14 C14           -2.8866    -2.0302    -1.1649 C.3     
  15 C15           -3.9216    -1.3254    -0.2858 C.3     
  16 O16           -2.5272    -3.2787    -0.5699 O.3     
  17 Si17          -3.4569    -4.5318    -1.0447 Si      
  18 C18           -5.2317    -4.1962    -0.5886 C.3     
  19 C19           -3.3194    -4.7427    -2.8907 C.3     
  20 C20           -2.8816    -6.0880    -0.1973 C.3     
  21 C21           -2.9946    -5.9148     1.3186 C.3     
  22 C22           -3.7538    -7.2635    -0.6427 C.3     
  23 C23           -1.4240    -6.3637    -0.5719 C.3     
  24 H24            4.1990    -0.0677    -0.0376 H       
  25 H25            5.2164     2.1772    -0.0346 H       
  26 H26            3.8001     4.1820    -0.0103 H       
  27 H27            1.3444     3.9730     0.0113 H       
  28 H28           -1.8982    -0.2341    -1.8269 H       
  29 H29           -0.8713    -1.6879    -1.8448 H       
  30 H30           -3.3099    -2.2073    -2.1536 H       
  31 H31           -4.1957    -0.3730    -0.7396 H       
  32 H32           -4.8082    -1.9528    -0.1943 H       
  33 H33           -3.4982    -1.1482     0.7029 H       
  34 H34           -5.5683    -3.2857    -1.0844 H       
  35 H35           -5.8531    -5.0336    -0.9059 H       
  36 H36           -5.3122    -4.0728     0.4914 H       
  37 H37           -2.2809    -4.9392    -3.1575 H       
  38 H38           -3.9407    -5.5802    -3.2080 H       
  39 H39           -3.6560    -3.8323    -3.3865 H       
  40 H40           -4.0330    -5.7184     1.5855 H       
  41 H41           -2.6580    -6.8253     1.8144 H       
  42 H42           -2.3733    -5.0773     1.6360 H       
  43 H43           -3.6733    -7.3869    -1.7227 H       
  44 H44           -3.4172    -8.1740    -0.1469 H       
  45 H45           -4.7922    -7.0671    -0.3759 H       
  46 H46           -0.8027    -5.5262    -0.2546 H       
  47 H47           -1.0874    -7.2742    -0.0761 H       
  48 H48           -1.3435    -6.4871    -1.6519 H       
@<TRIPOS>BOND
   1    1    2 am
   2    1    9 1
   3    1   10 2
   4    2    3 am
   5    2   12 1
   6    3    4 1
   7    3   11 2
   8    4    5 ar
   9    4    9 ar
  10    5    6 ar
  11    5   24 1
  12    6    7 ar
  13    6   25 1
  14    7    8 ar
  15    7   26 1
  16    8    9 ar
  17    8   27 1
  18   12   13 1
  19   13   14 1
  20   13   28 1
  21   13   29 1
  22   14   15 1
  23   14   16 1
  24   14   30 1
  25   15   31 1
  26   15   32 1
  27   15   33 1
  28   16   17 1
  29   17   18 1
  30   17   19 1
  31   17   20 1
  32   18   34 1
  33   18   35 1
  34   18   36 1
  35   19   37 1
  36   19   38 1
  37   19   39 1
  38   20   21 1
  39   20   23 1
  40   20   22 1
  41   21   40 1
  42   21   41 1
  43   21   42 1
  44   22   43 1
  45   22   44 1
  46   22   45 1
  47   23   46 1
  48   23   47 1
  49   23   48 1

#	End of record

