#	Name: ASD01883858
#	Creating user name:	WinNT
#	Creation time:	15. 06. 2019 19:47

#	Modifying user name:	WinNT
#	Modification time:	15. 06. 2019 19:47

#	Program:	/corina/corina34_cracker 3.40 0067  02.08.2006

@<TRIPOS>MOLECULE
ASD01883858
  46   47    0    0    0
SMALL
NO_CHARGES


@<TRIPOS>ATOM
   1 C1            -0.0170     1.4019     0.0098 C.2     
   2 C2             0.0021    -0.0041     0.0020 C.2     
   3 C3            -1.2244    -0.6972     0.0100 C.2     
   4 C4            -2.3887    -0.0097     0.0247 C.2     
   5 N5            -2.4081     1.3481     0.0318 N.am    
   6 C6            -1.2689     2.0648     0.0312 C.2     
   7 O7            -1.3144     3.2832     0.0380 O.2     
   8 C8            -3.6955     2.0471     0.0468 C.3     
   9 C9             1.2047     2.1489     0.0021 C.1     
  10 N10            2.1739     2.7414    -0.0040 N.1     
  11 C11            1.2833    -0.7401    -0.0146 C.ar    
  12 C12           -4.1308     2.2831     1.4944 C.3     
  13 C13           -5.4753     3.0132     1.5101 C.3     
  14 C14           -6.5527     2.1107     0.9055 C.3     
  15 C15           -5.8506     3.3598     2.9523 C.3     
  16 C16            1.6469    -1.5377     1.0731 C.ar    
  17 C17            2.8418    -2.2226     1.0536 C.ar    
  18 C18            3.6852    -2.1209    -0.0462 C.ar    
  19 C19            3.3274    -1.3281    -1.1300 C.ar    
  20 C20            2.1315    -0.6446    -1.1205 C.ar    
  21 O21            4.8621    -2.7975    -0.0616 O.3     
  22 C22            5.6811    -2.6483    -1.2232 C.3     
  23 C23            6.9556    -3.4786    -1.0587 C.3     
  24 C24            7.7991    -3.3248    -2.2552 C.1     
  25 N25            8.4501    -3.2062    -3.1786 N.1     
  26 H26           -1.2348    -1.7771     0.0039 H       
  27 H27           -3.3228    -0.5518     0.0307 H       
  28 H28           -3.5947     3.0052    -0.4631 H       
  29 H29           -4.4440     1.4409    -0.4634 H       
  30 H30           -4.2316     1.3251     2.0044 H       
  31 H31           -3.3822     2.8893     2.0047 H       
  32 H32           -5.3981     3.9293     0.9246 H       
  33 H33           -6.2853     1.8638    -0.1219 H       
  34 H34           -6.6299     1.1946     1.4911 H       
  35 H35           -7.5106     2.6308     0.9167 H       
  36 H36           -5.0830     4.0027     3.3830 H       
  37 H37           -6.8084     3.8799     2.9635 H       
  38 H38           -5.9277     2.4436     3.5379 H       
  39 H39            0.9921    -1.6170     1.9283 H       
  40 H40            3.1238    -2.8392     1.8943 H       
  41 H41            3.9858    -1.2510    -1.9825 H       
  42 H42            1.8540    -0.0287    -1.9632 H       
  43 H43            5.1336    -2.9929    -2.1004 H       
  44 H44            5.9452    -1.5983    -1.3490 H       
  45 H45            7.5031    -3.1340    -0.1815 H       
  46 H46            6.6915    -4.5286    -0.9329 H       
@<TRIPOS>BOND
   1    1    2 2
   2    1    9 1
   3    1    6 1
   4    2    3 1
   5    2   11 1
   6    3    4 2
   7    3   26 1
   8    4    5 1
   9    4   27 1
  10    5    6 am
  11    5    8 1
  12    6    7 2
  13    8   12 1
  14    8   28 1
  15    8   29 1
  16    9   10 3
  17   11   16 ar
  18   11   20 ar
  19   12   13 1
  20   12   30 1
  21   12   31 1
  22   13   14 1
  23   13   15 1
  24   13   32 1
  25   14   33 1
  26   14   34 1
  27   14   35 1
  28   15   36 1
  29   15   37 1
  30   15   38 1
  31   16   17 ar
  32   16   39 1
  33   17   18 ar
  34   17   40 1
  35   18   19 ar
  36   18   21 1
  37   19   20 ar
  38   19   41 1
  39   20   42 1
  40   21   22 1
  41   22   23 1
  42   22   43 1
  43   22   44 1
  44   23   24 1
  45   23   45 1
  46   23   46 1
  47   24   25 3

#	End of record

