#	Name: ASD01883155
#	Creating user name:	WinNT
#	Creation time:	15. 06. 2019 19:45

#	Modifying user name:	WinNT
#	Modification time:	15. 06. 2019 19:45

#	Program:	/corina/corina34_cracker 3.40 0067  02.08.2006

@<TRIPOS>MOLECULE
ASD01883155
  50   51    0    0    0
SMALL
NO_CHARGES


@<TRIPOS>ATOM
   1 N1            -0.0162     1.3417     0.0094 N.am    
   2 C2             0.0021    -0.0041     0.0020 C.2     
   3 C3            -1.2161    -0.7274     0.0098 C.2     
   4 C4            -2.4261    -0.0111     0.0252 C.2     
   5 C5            -2.3786     1.3969     0.0323 C.2     
   6 C6            -1.1851     2.0325     0.0299 C.2     
   7 O7             1.0657    -0.6000    -0.0117 O.2     
   8 C8            -1.2151    -2.1594     0.0016 C.1     
   9 N9            -1.2144    -3.2953    -0.0049 N.1     
  10 C10            1.2513     2.0764     0.0013 C.3     
  11 C11            1.6787     2.3399    -1.4440 C.3     
  12 C12            3.0024     3.1072    -1.4525 C.3     
  13 C13            4.1050     2.2286    -0.8581 C.3     
  14 C14            3.3668     3.4794    -2.8911 C.3     
  15 C15           -3.7219    -0.7213     0.0332 C.ar    
  16 C16           -4.0798    -1.5117     1.1274 C.ar    
  17 C17           -5.2894    -2.1733     1.1337 C.ar    
  18 C18           -6.1533    -2.0563     0.0541 C.ar    
  19 C19           -5.8019    -1.2692    -1.0417 C.ar    
  20 C20           -4.5942    -0.5988    -1.0514 C.ar    
  21 O21           -6.6503    -1.1572    -2.0986 O.3     
  22 C22           -6.2258    -0.3343    -3.1870 C.3     
  23 O23           -7.3439    -2.7105     0.0648 O.3     
  24 C24           -7.6401    -3.4998     1.2186 C.3     
  25 C25           -9.0123    -4.1552     1.0496 C.3     
  26 O26           -8.9679    -5.0794    -0.0394 O.3     
  27 H27           -3.2950     1.9683     0.0441 H       
  28 H28           -1.1611     3.1122     0.0354 H       
  29 H29            1.1242     3.0258     0.5214 H       
  30 H30            2.0168     1.4859     0.5046 H       
  31 H31            1.8057     1.3905    -1.9642 H       
  32 H32            0.9132     2.9304    -1.9474 H       
  33 H33            2.9002     4.0145    -0.8572 H       
  34 H34            4.2071     1.3213    -1.4534 H       
  35 H35            5.0480     2.7753    -0.8642 H       
  36 H36            3.8453     1.9634     0.1668 H       
  37 H37            2.5813     4.1053    -3.3146 H       
  38 H38            4.3098     4.0261    -2.8971 H       
  39 H39            3.4690     2.5721    -3.4864 H       
  40 H40           -3.4089    -1.6050     1.9686 H       
  41 H41           -5.5649    -2.7843     1.9806 H       
  42 H42           -4.3208     0.0116    -1.8994 H       
  43 H43           -6.9930    -0.3316    -3.9613 H       
  44 H44           -6.0648     0.6835    -2.8316 H       
  45 H45           -5.2959    -0.7269    -3.5982 H       
  46 H46           -6.8803    -4.2726     1.3351 H       
  47 H47           -7.6484    -2.8622     2.1026 H       
  48 H48           -9.2773    -4.6845     1.9648 H       
  49 H49           -9.7587    -3.3877     0.8447 H       
  50 H50           -9.8057    -5.5331    -0.2046 H       
@<TRIPOS>BOND
   1    1    2 am
   2    1   10 1
   3    1    6 1
   4    2    3 1
   5    2    7 2
   6    3    4 2
   7    3    8 1
   8    4    5 1
   9    4   15 1
  10    5    6 2
  11    5   27 1
  12    6   28 1
  13    8    9 3
  14   10   11 1
  15   10   29 1
  16   10   30 1
  17   11   12 1
  18   11   31 1
  19   11   32 1
  20   12   13 1
  21   12   14 1
  22   12   33 1
  23   13   34 1
  24   13   35 1
  25   13   36 1
  26   14   37 1
  27   14   38 1
  28   14   39 1
  29   15   16 ar
  30   15   20 ar
  31   16   17 ar
  32   16   40 1
  33   17   18 ar
  34   17   41 1
  35   18   19 ar
  36   18   23 1
  37   19   20 ar
  38   19   21 1
  39   20   42 1
  40   21   22 1
  41   22   43 1
  42   22   44 1
  43   22   45 1
  44   23   24 1
  45   24   25 1
  46   24   46 1
  47   24   47 1
  48   25   26 1
  49   25   48 1
  50   25   49 1
  51   26   50 1

#	End of record

