#	Name: ASD01870564
#	Creating user name:	WinNT
#	Creation time:	15. 06. 2019 19:39

#	Modifying user name:	WinNT
#	Modification time:	15. 06. 2019 19:39

#	Program:	/corina/corina34_cracker 3.40 0067  02.08.2006

@<TRIPOS>MOLECULE
ASD01870564
  43   46    0    0    0
SMALL
NO_CHARGES


@<TRIPOS>ATOM
   1 C1            -0.0444     1.4725    -0.0089 C.2     
   2 C2            -0.0306    -0.0011    -0.0214 C.ar    
   3 C3             2.4594     0.1429    -0.0414 C.3     
   4 C4             2.3099     1.6488    -0.0285 C.2     
   5 Cl5            0.9543     3.4455    -2.7086 Cl      
   6 O6            -1.1136     2.0496     0.0104 O.2     
   7 N7             1.0829     2.1974    -0.0128 N.am    
   8 C8             0.9772     3.5963    -0.0002 C.ar    
   9 C9            -1.1736    -2.1104    -0.0300 C.ar    
  10 C10            0.0419    -2.7710    -0.0456 C.ar    
  11 C11            1.2274    -2.0527    -0.0504 C.ar    
  12 C12            1.1924    -0.6797    -0.0377 C.ar    
  13 C13           -1.2192    -0.7307    -0.0176 C.ar    
  14 C14            0.9086     4.2988    -1.1975 C.ar    
  15 C15            0.9354     4.2783     1.2080 C.ar    
  16 C16            0.8313     5.6550     1.2208 C.ar    
  17 C17            0.7684     6.3582     0.0248 C.ar    
  18 C18            0.8045     5.6759    -1.1847 C.ar    
  19 O19            3.2933     2.3578    -0.0312 O.2     
  20 N20            0.6629     7.7535     0.0382 N.am    
  21 C21            1.2675     8.4842    -0.9194 C.2     
  22 C22            1.0615     9.9349    -0.9743 C.2     
  23 O23            0.3009    10.6602    -0.1284 O.3     
  24 C24            1.6108    10.7895    -1.8870 C.2     
  25 C25            1.1474    12.0749    -1.5660 C.2     
  26 C26            0.3486    11.9509    -0.4831 C.2     
  27 C27            2.5355    10.4233    -3.0192 C.3     
  28 O28            1.9844     7.9399    -1.7387 O.2     
  29 H29            3.0309    -0.1290    -0.9288 H       
  30 H30            3.0474    -0.1424     0.8309 H       
  31 H31           -2.0926    -2.6777    -0.0267 H       
  32 H32            0.0671    -3.8507    -0.0549 H       
  33 H33            2.1750    -2.5707    -0.0626 H       
  34 H34           -2.1702    -0.2191    -0.0046 H       
  35 H35            0.9839     3.7319     2.1383 H       
  36 H36            0.7985     6.1852     2.1611 H       
  37 H37            0.7508     6.2222    -2.1148 H       
  38 H38            0.1547     8.1948     0.7367 H       
  39 H39            1.3865    12.9913    -2.0852 H       
  40 H40           -0.1650    12.7596     0.0155 H       
  41 H41            1.9484    10.1967    -3.9091 H       
  42 H42            3.2034    11.2592    -3.2276 H       
  43 H43            3.1237     9.5493    -2.7397 H       
@<TRIPOS>BOND
   1    1    2 1
   2    1    7 am
   3    1    6 2
   4    2   13 ar
   5    2   12 ar
   6    3    4 1
   7    3   12 1
   8    3   29 1
   9    3   30 1
  10    4    7 am
  11    4   19 2
  12    5   14 1
  13    7    8 1
  14    8   15 ar
  15    8   14 ar
  16    9   10 ar
  17    9   13 ar
  18    9   31 1
  19   10   11 ar
  20   10   32 1
  21   11   12 ar
  22   11   33 1
  23   13   34 1
  24   14   18 ar
  25   15   16 ar
  26   15   35 1
  27   16   17 ar
  28   16   36 1
  29   17   18 ar
  30   17   20 1
  31   18   37 1
  32   20   21 am
  33   20   38 1
  34   21   22 1
  35   21   28 2
  36   22   24 2
  37   22   23 1
  38   23   26 1
  39   24   25 1
  40   24   27 1
  41   25   26 2
  42   25   39 1
  43   26   40 1
  44   27   41 1
  45   27   42 1
  46   27   43 1

#	End of record

