#	Name: ASD01910117
#	Creating user name:	WinNT
#	Creation time:	15. 06. 2019 19:55

#	Modifying user name:	WinNT
#	Modification time:	15. 06. 2019 19:55

#	Program:	/corina/corina34_cracker 3.40 0067  02.08.2006

@<TRIPOS>MOLECULE
ASD01910117
  42   45    0    0    0
SMALL
NO_CHARGES


@<TRIPOS>ATOM
   1 C1             0.1121     0.5012     0.4068 C.ar    
   2 C2             0.3421    -0.8591     0.4529 C.ar    
   3 C3             1.6352    -1.3575     0.3884 C.ar    
   4 C4             2.7042    -0.4847     0.2769 C.ar    
   5 C5             2.4728     0.9060     0.2296 C.ar    
   6 C6             1.1740     1.3915     0.2950 C.ar    
   7 C7             4.1697    -0.6533     0.1854 C.2     
   8 N8             4.7355     0.5636     0.0920 N.am    
   9 C9             3.8036     1.5335     0.1111 C.2     
  10 C10            6.1771     0.8014    -0.0155 C.3     
  11 C11            6.6017     0.6709    -1.4556 C.ar    
  12 C12            6.4527     1.7442    -2.3241 C.ar    
  13 C13            6.8451     1.6205    -3.6508 C.ar    
  14 C14            7.3820     0.4313    -4.1027 C.ar    
  15 C15            7.5294    -0.6369    -3.2349 C.ar    
  16 C16            7.1446    -0.5146    -1.9115 C.ar    
  17 N17            5.9081     2.9475    -1.8638 N.am    
  18 C18            5.3626     3.8178    -2.7365 C.2     
  19 C19            4.8921     5.1413    -2.2664 C.ar    
  20 O20            5.2568     3.5166    -3.9091 O.2     
  21 O21            4.0209     2.7266     0.0417 O.2     
  22 O22            4.7635    -1.7127     0.1936 O.2     
  23 Cl23           8.2042    -2.1308    -3.8065 Cl      
  24 C24            4.3293     6.0363    -3.1732 C.ar    
  25 C25            3.8931     7.2709    -2.7182 C.ar    
  26 C26            4.0352     7.5673    -1.3719 C.ar    
  27 C27            4.6046     6.6285    -0.5260 C.ar    
  28 N28            5.0054     5.4625    -0.9832 N.ar    
  29 F29            0.9431     2.7218     0.2499 F       
  30 H30           -0.8997     0.8761     0.4534 H       
  31 H31           -0.4911    -1.5407     0.5402 H       
  32 H32            1.8075    -2.4231     0.4254 H       
  33 H33            6.4075     1.8051     0.3416 H       
  34 H34            6.7122     0.0689     0.5888 H       
  35 H35            6.7300     2.4535    -4.3284 H       
  36 H36            7.6869     0.3344    -5.1342 H       
  37 H37            7.2607    -1.3496    -1.2365 H       
  38 H38            5.9230     3.1557    -0.9165 H       
  39 H39            4.2343     5.7722    -4.2161 H       
  40 H40            3.4529     7.9858    -3.3976 H       
  41 H41            3.7058     8.5205    -0.9856 H       
  42 H42            4.7168     6.8561     0.5238 H       
@<TRIPOS>BOND
   1    1    2 ar
   2    1    6 ar
   3    1   30 1
   4    2    3 ar
   5    2   31 1
   6    3    4 ar
   7    3   32 1
   8    4    5 ar
   9    4    7 1
  10    5    6 ar
  11    5    9 1
  12    6   29 1
  13    7    8 am
  14    7   22 2
  15    8    9 am
  16    8   10 1
  17    9   21 2
  18   10   11 1
  19   10   33 1
  20   10   34 1
  21   11   12 ar
  22   11   16 ar
  23   12   13 ar
  24   12   17 1
  25   13   14 ar
  26   13   35 1
  27   14   15 ar
  28   14   36 1
  29   15   16 ar
  30   15   23 1
  31   16   37 1
  32   17   18 am
  33   17   38 1
  34   18   19 1
  35   18   20 2
  36   19   24 ar
  37   19   28 ar
  38   24   25 ar
  39   24   39 1
  40   25   26 ar
  41   25   40 1
  42   26   27 ar
  43   26   41 1
  44   27   28 ar
  45   27   42 1

#	End of record

