#	Name: ASD01814216
#	Creating user name:	WinNT
#	Creation time:	15. 06. 2019 19:31

#	Modifying user name:	WinNT
#	Modification time:	15. 06. 2019 19:31

#	Program:	/corina/corina34_cracker 3.40 0067  02.08.2006

@<TRIPOS>MOLECULE
ASD01814216
  63   67    0    0    0
SMALL
NO_CHARGES


@<TRIPOS>ATOM
   1 N1            -0.9367     1.9125    -1.4748 N.2     
   2 C2            -1.2085     0.7657    -2.0518 C.2     
   3 C3            -0.3564     0.2524    -3.0416 C.2     
   4 C4             0.7500     0.9516    -3.3965 C.2     
   5 N5             1.0093     2.1426    -2.7800 N.pl3   
   6 C6             0.1533     2.6118    -1.8173 C.2     
   7 N7             2.0422     3.0752    -2.9197 N.2     
   8 C8             1.8332     4.0717    -2.0832 C.2     
   9 C9             0.6678     3.8255    -1.3771 C.2     
  10 C10            2.4105     5.3869    -1.6205 C.3     
  11 N11            1.5216     5.9255    -0.5863 N.am    
  12 C12            0.4268     4.9643    -0.4197 C.3     
  13 C13            1.6806     7.0839     0.0840 C.2     
  14 O14            0.8175     7.4662     0.8505 O.2     
  15 C15            2.9009     7.8874    -0.1121 C.ar    
  16 C16            2.8133     9.2807    -0.2462 C.ar    
  17 C17            4.1513     7.2652    -0.1597 C.ar    
  18 C18            5.2882     8.0205    -0.3426 C.ar    
  19 C19            5.1980     9.3988    -0.4802 C.ar    
  20 C20            3.9660    10.0271    -0.4296 C.ar    
  21 O21            1.6048     9.8950    -0.1968 O.3     
  22 C22            1.6030    11.3240    -0.1967 C.3     
  23 C23            1.7011    13.3656    -1.6326 C.3     
  24 C24            1.6684    11.8340    -1.6381 C.3     
  25 C25            0.3217    11.8322     0.4684 C.3     
  26 C26            0.3392    13.3637     0.4977 C.3     
  27 N27            0.5475    13.8606    -0.8692 N.am    
  28 C28            1.6811     0.4216    -4.4563 C.3     
  29 Cl29          -0.7153    -1.2650    -3.8048 Cl      
  30 C30           -2.4404    -0.0034    -1.6495 C.3     
  31 C31           -0.3033    14.7537    -1.4123 C.2     
  32 F32            6.3191    10.1312    -0.6588 F       
  33 O33           -1.3564    15.1988    -0.7012 O.3     
  34 O34           -0.1199    15.1573    -2.5436 O.2     
  35 C35           -2.2308    16.1597    -1.3495 C.3     
  36 C36           -3.3616    16.5460    -0.3941 C.3     
  37 H37            3.4059     5.2279    -1.2058 H       
  38 H38            2.4653     6.0815    -2.4587 H       
  39 H39           -0.5248     5.4442    -0.6485 H       
  40 H40            0.4164     4.5904     0.6041 H       
  41 H41            4.2260     6.1931    -0.0527 H       
  42 H42            6.2540     7.5386    -0.3788 H       
  43 H43            3.9030    11.1002    -0.5336 H       
  44 H44            2.4685    11.6883     0.3568 H       
  45 H45            2.6236    13.7097    -1.1650 H       
  46 H46            1.6478    13.7359    -2.6564 H       
  47 H47            2.5694    11.4526    -2.1185 H       
  48 H48            0.7905    11.4909    -2.1856 H       
  49 H49           -0.5434    11.4890    -0.0990 H       
  50 H50            0.2643    11.4494     1.4873 H       
  51 H51           -0.6127    13.7328     0.8796 H       
  52 H52            1.1506    13.7076     1.1391 H       
  53 H53            1.3062    -0.5333    -4.8247 H       
  54 H54            1.7358     1.1328    -5.2805 H       
  55 H55            2.6746     0.2820    -4.0303 H       
  56 H56           -2.9744     0.5457    -0.8739 H       
  57 H57           -3.0887    -0.1304    -2.5165 H       
  58 H58           -2.1492    -0.9817    -1.2671 H       
  59 H59           -1.6596    17.0493    -1.6150 H       
  60 H60           -2.6527    15.7163    -2.2515 H       
  61 H61           -4.0180    17.2674    -0.8807 H       
  62 H62           -3.9328    15.6564    -0.1286 H       
  63 H63           -2.9397    16.9894     0.5079 H       
@<TRIPOS>BOND
   1    1    2 2
   2    1    6 1
   3    2    3 1
   4    2   30 1
   5    3    4 2
   6    3   29 1
   7    4    5 1
   8    4   28 1
   9    5    7 1
  10    5    6 1
  11    6    9 2
  12    7    8 2
  13    8   10 1
  14    8    9 1
  15    9   12 1
  16   10   11 1
  17   10   37 1
  18   10   38 1
  19   11   12 1
  20   11   13 am
  21   12   39 1
  22   12   40 1
  23   13   14 2
  24   13   15 1
  25   15   17 ar
  26   15   16 ar
  27   16   20 ar
  28   16   21 1
  29   17   18 ar
  30   17   41 1
  31   18   19 ar
  32   18   42 1
  33   19   20 ar
  34   19   32 1
  35   20   43 1
  36   21   22 1
  37   22   25 1
  38   22   24 1
  39   22   44 1
  40   23   24 1
  41   23   27 1
  42   23   45 1
  43   23   46 1
  44   24   47 1
  45   24   48 1
  46   25   26 1
  47   25   49 1
  48   25   50 1
  49   26   27 1
  50   26   51 1
  51   26   52 1
  52   27   31 am
  53   28   53 1
  54   28   54 1
  55   28   55 1
  56   30   56 1
  57   30   57 1
  58   30   58 1
  59   31   33 1
  60   31   34 2
  61   33   35 1
  62   35   36 1
  63   35   59 1
  64   35   60 1
  65   36   61 1
  66   36   62 1
  67   36   63 1

#	End of record

