#	Name: ASD01410388
#	Creating user name:	WinNT
#	Creation time:	15. 06. 2019 19:17

#	Modifying user name:	WinNT
#	Modification time:	15. 06. 2019 19:17

#	Program:	/corina/corina34_cracker 3.40 0067  02.08.2006

@<TRIPOS>MOLECULE
ASD01410388
  65   70    0    0    0
SMALL
NO_CHARGES


@<TRIPOS>ATOM
   1 O1            -0.5885     1.0818    -1.0565 O.2     
   2 C2            -0.0144     1.2129     0.0087 C.2     
   3 C3             1.2570     1.9344     0.0706 C.2     
   4 C4             2.3882     1.2364     0.1820 C.2     
   5 C5             3.7446     1.7630     0.2411 C.ar    
   6 C6             4.6438     1.1753     1.1480 C.ar    
   7 C7             5.9498     1.6024     1.2116 C.ar    
   8 C8             6.3993     2.6155     0.3793 C.ar    
   9 C9             5.5323     3.2208    -0.5049 C.ar    
  10 C10            4.1949     2.8187    -0.5688 C.ar    
  11 C11            3.2857     3.5560    -1.4685 C.2     
  12 N12            1.9706     3.8576    -1.1976 N.pl3   
  13 C13            1.2430     3.4376     0.0003 C.3     
  14 C14            1.4649     4.5849    -2.2405 C.ar    
  15 C15            0.2157     5.1519    -2.4525 C.ar    
  16 C16            0.0277     5.8341    -3.6612 C.ar    
  17 C17            1.0465     5.9414    -4.6152 C.ar    
  18 C18            2.2834     5.3907    -4.4199 C.ar    
  19 C19            2.4949     4.7058    -3.2119 C.ar    
  20 C20            3.6212     4.0489    -2.6959 C.2     
  21 C21            4.9602     3.9124    -3.3740 C.3     
  22 C22            4.7866     3.1712    -4.7011 C.3     
  23 C23            6.1459     3.0327    -5.3895 C.3     
  24 C24            6.7276     4.4229    -5.6541 C.3     
  25 C25            6.9012     5.1641    -4.3269 C.3     
  26 C26            5.5418     5.3026    -3.6385 C.3     
  27 C27           -1.2798     6.4574    -3.9363 C.2     
  28 O28           -2.1759     6.3750    -3.1197 O.2     
  29 O29           -1.4812     7.1184    -5.0932 O.3     
  30 N30           -0.5526     0.6983     1.1321 N.am    
  31 C31            0.1680     0.7584     2.4137 C.3     
  32 C32           -0.7778     1.3345     3.4736 C.3     
  33 O33           -2.0001     0.5930     3.4667 O.3     
  34 C34           -2.7246     0.6703     2.2367 C.3     
  35 C35           -1.8809     0.0652     1.1145 C.3     
  36 H36            2.2870     0.1625     0.2344 H       
  37 H37            4.3067     0.3828     1.7997 H       
  38 H38            6.6297     1.1455     1.9154 H       
  39 H39            7.4310     2.9315     0.4239 H       
  40 H40            5.8880     4.0092    -1.1516 H       
  41 H41            0.2138     3.7928    -0.0528 H       
  42 H42            1.7294     3.8457     0.8863 H       
  43 H43           -0.5740     5.0704    -1.7202 H       
  44 H44            0.8498     6.4747    -5.5335 H       
  45 H45            3.0632     5.4787    -5.1619 H       
  46 H46            5.6378     3.3515    -2.7304 H       
  47 H47            4.3722     2.1808    -4.5127 H       
  48 H48            4.1089     3.7322    -5.3447 H       
  49 H49            6.8236     2.4717    -4.7460 H       
  50 H50            6.0223     2.5047    -6.3350 H       
  51 H51            7.6960     4.3242    -6.1445 H       
  52 H52            6.0499     4.9839    -6.2976 H       
  53 H53            7.5789     4.6031    -3.6834 H       
  54 H54            7.3156     6.1545    -4.5154 H       
  55 H55            4.8642     5.8636    -4.2820 H       
  56 H56            5.6655     5.8307    -2.6930 H       
  57 H57           -2.3548     7.5103    -5.2287 H       
  58 H58            0.4806    -0.2439     2.7064 H       
  59 H59            1.0423     1.4015     2.3134 H       
  60 H60           -0.3122     1.2597     4.4563 H       
  61 H61           -0.9852     2.3803     3.2468 H       
  62 H62           -3.6595     0.1176     2.3294 H       
  63 H63           -2.9390     1.7137     2.0053 H       
  64 H64           -2.3631     0.2467     0.1539 H       
  65 H65           -1.7723    -1.0075     1.2744 H       
@<TRIPOS>BOND
   1    1    2 2
   2    2    3 1
   3    2   30 am
   4    3    4 2
   5    3   13 1
   6    4    5 1
   7    4   36 1
   8    5    6 ar
   9    5   10 ar
  10    6    7 ar
  11    6   37 1
  12    7    8 ar
  13    7   38 1
  14    8    9 ar
  15    8   39 1
  16    9   10 ar
  17    9   40 1
  18   10   11 1
  19   11   12 1
  20   11   20 2
  21   12   13 1
  22   12   14 1
  23   13   41 1
  24   13   42 1
  25   14   15 ar
  26   14   19 ar
  27   15   16 ar
  28   15   43 1
  29   16   17 ar
  30   16   27 1
  31   17   18 ar
  32   17   44 1
  33   18   19 ar
  34   18   45 1
  35   19   20 1
  36   20   21 1
  37   21   22 1
  38   21   26 1
  39   21   46 1
  40   22   23 1
  41   22   47 1
  42   22   48 1
  43   23   24 1
  44   23   49 1
  45   23   50 1
  46   24   25 1
  47   24   51 1
  48   24   52 1
  49   25   26 1
  50   25   53 1
  51   25   54 1
  52   26   55 1
  53   26   56 1
  54   27   28 2
  55   27   29 1
  56   29   57 1
  57   30   31 1
  58   30   35 1
  59   31   32 1
  60   31   58 1
  61   31   59 1
  62   32   33 1
  63   32   60 1
  64   32   61 1
  65   33   34 1
  66   34   35 1
  67   34   62 1
  68   34   63 1
  69   35   64 1
  70   35   65 1

#	End of record

