#	Name: ASD01812970
#	Creating user name:	WinNT
#	Creation time:	15. 06. 2019 19:29

#	Modifying user name:	WinNT
#	Modification time:	15. 06. 2019 19:29

#	Program:	/corina/corina34_cracker 3.40 0067  02.08.2006

@<TRIPOS>MOLECULE
ASD01812970
  55   59    0    0    0
SMALL
NO_CHARGES


@<TRIPOS>ATOM
   1 C1             0.1044    -0.0204     0.0815 C.ar    
   2 C2             0.4480    -1.3528     0.1928 C.ar    
   3 C3             1.7819    -1.7315     0.2185 C.ar    
   4 C4             2.7702    -0.7809     0.1333 C.ar    
   5 C5             2.4408     0.5731     0.0202 C.ar    
   6 C6             1.0912     0.9510    -0.0055 C.ar    
   7 C7             4.2769    -0.8536     0.1318 C.3     
   8 N8             4.7534     0.5291     0.0122 N.am    
   9 C9             3.6900     1.3487    -0.0519 C.2     
  10 C10            6.1568     0.9472    -0.0308 C.3     
  11 C11            6.6304     0.9708    -1.4613 C.ar    
  12 O12            0.7517     2.2597    -0.1152 O.3     
  13 O13            3.7511     2.5587    -0.1548 O.2     
  14 C14            6.5026     2.1269    -2.2103 C.ar    
  15 C15            6.9338     2.1547    -3.5206 C.ar    
  16 C16            7.5000     1.0138    -4.0898 C.ar    
  17 C17            7.6265    -0.1487    -3.3292 C.ar    
  18 C18            7.1962    -0.1622    -2.0183 C.ar    
  19 N19            7.5716     1.9142    -6.4608 N.pl3   
  20 C20            7.9641     1.0366    -5.4948 C.2     
  21 C21           -0.5682     2.5760    -0.1362 C.ar    
  22 C22            8.8658     0.1821    -6.0635 C.2     
  23 C23            9.0207     0.5513    -7.3998 C.2     
  24 N24            8.2513     1.5826    -7.6398 N.2     
  25 C25            6.6070     3.0047    -6.2972 C.3     
  26 C26           -1.2472     2.8427     1.0601 C.ar    
  27 C27           -2.6061     3.1673     1.0258 C.ar    
  28 C28           -3.2697     3.2233    -0.1806 C.ar    
  29 C29           -2.5964     2.9593    -1.3621 C.ar    
  30 C30           -1.2506     2.6425    -1.3438 C.ar    
  31 C31           -0.5527     2.7825     2.3109 C.1     
  32 N32           -0.0018     2.7348     3.3032 N.1     
  33 F33           -0.6003     2.3924    -2.5013 F       
  34 C34            9.9228    -0.1247    -8.4000 C.3     
  35 H35           -0.9365     0.2666     0.0576 H       
  36 H36           -0.3254    -2.1036     0.2604 H       
  37 H37            2.0442    -2.7755     0.3061 H       
  38 H38            4.6318    -1.2930     1.0641 H       
  39 H39            4.6227    -1.4440    -0.7167 H       
  40 H40            6.2523     1.9439     0.3999 H       
  41 H41            6.7630     0.2447     0.5410 H       
  42 H42            6.0641     3.0095    -1.7685 H       
  43 H43            6.8329     3.0576    -4.1045 H       
  44 H44            8.0637    -1.0352    -3.7644 H       
  45 H45            7.2972    -1.0604    -1.4271 H       
  46 H46            9.3696    -0.6338    -5.5666 H       
  47 H47            7.1142     3.8807    -5.8928 H       
  48 H48            6.1705     3.2520    -7.2649 H       
  49 H49            5.8187     2.6928    -5.6121 H       
  50 H50           -3.1358     3.3736     1.9441 H       
  51 H51           -4.3199     3.4740    -0.2051 H       
  52 H52           -3.1244     3.0056    -2.3030 H       
  53 H53            9.3743    -0.9200    -8.9047 H       
  54 H54           10.2622     0.6054    -9.1348 H       
  55 H55           10.7844    -0.5484    -7.8840 H       
@<TRIPOS>BOND
   1    1    2 ar
   2    1    6 ar
   3    1   35 1
   4    2    3 ar
   5    2   36 1
   6    3    4 ar
   7    3   37 1
   8    4    7 1
   9    4    5 ar
  10    5    6 ar
  11    5    9 1
  12    6   12 1
  13    7    8 1
  14    7   38 1
  15    7   39 1
  16    8    9 am
  17    8   10 1
  18    9   13 2
  19   10   11 1
  20   10   40 1
  21   10   41 1
  22   11   14 ar
  23   11   18 ar
  24   12   21 1
  25   14   15 ar
  26   14   42 1
  27   15   16 ar
  28   15   43 1
  29   16   17 ar
  30   16   20 1
  31   17   18 ar
  32   17   44 1
  33   18   45 1
  34   19   20 1
  35   19   24 1
  36   19   25 1
  37   20   22 2
  38   21   26 ar
  39   21   30 ar
  40   22   23 1
  41   22   46 1
  42   23   24 2
  43   23   34 1
  44   25   47 1
  45   25   48 1
  46   25   49 1
  47   26   27 ar
  48   26   31 1
  49   27   28 ar
  50   27   50 1
  51   28   29 ar
  52   28   51 1
  53   29   30 ar
  54   29   52 1
  55   30   33 1
  56   31   32 3
  57   34   53 1
  58   34   54 1
  59   34   55 1

#	End of record

