#	Name: ASD02198099
#	Creating user name:	WinNT
#	Creation time:	15. 06. 2019 20:18

#	Modifying user name:	WinNT
#	Modification time:	15. 06. 2019 20:18

#	Program:	/corina/corina34_cracker 3.40 0067  02.08.2006

@<TRIPOS>MOLECULE
ASD02198099
  48   50    0    0    0
SMALL
NO_CHARGES


@<TRIPOS>ATOM
   1 C1            -0.1271     1.3986    -0.4995 C.2     
   2 C2            -0.0049     0.0260    -0.4467 C.2     
   3 C3            -1.1154    -0.8483    -0.2163 C.1     
   4 S4             1.3842     2.1328    -0.7888 S.3     
   5 C5             2.2025     0.5797    -0.8417 C.2     
   6 C6             1.2966    -0.4333    -0.6378 C.2     
   7 C7             3.5824     0.3992    -1.0611 C.2     
   8 C8             4.4359     1.5592    -1.3920 C.ar    
   9 O9             4.0726    -0.7145    -0.9778 O.2     
  10 N10            1.6424    -1.7759    -0.6236 N.pl3   
  11 N11           -1.3104     2.0831    -0.3453 N.pl3   
  12 N12           -1.9963    -1.5419    -0.0335 N.1     
  13 C13            5.2774     2.1096    -0.4237 C.ar    
  14 C14           -1.3078     3.4815    -0.2901 C.ar    
  15 C15           -2.3535     4.2012    -0.8535 C.ar    
  16 C16            6.0736     3.1955    -0.7403 C.ar    
  17 C17            6.0373     3.7389    -2.0180 C.ar    
  18 C18            5.2074     3.1999    -2.9816 C.ar    
  19 C19            4.4087     2.1081    -2.6805 C.ar    
  20 C20           -2.3503     5.5809    -0.7981 C.ar    
  21 C21           -1.3028     6.2483    -0.1803 C.ar    
  22 C22           -0.2578     5.5303     0.3827 C.ar    
  23 C23           -0.2622     4.1503     0.3333 C.ar    
  24 O24            6.8937     3.7326     0.2021 O.3     
  25 C25            7.6888     4.8527    -0.1921 C.3     
  26 O26            3.5932     1.5791    -3.6286 O.3     
  27 C27            3.6086     2.1983    -4.9164 C.3     
  28 O28           -1.3000     7.6070    -0.1271 O.3     
  29 C29           -0.1902     8.2284     0.5242 C.3     
  30 H30            2.5653    -2.0405    -0.7624 H       
  31 H31            0.9616    -2.4506    -0.4750 H       
  32 H32           -2.1466     1.5965    -0.2748 H       
  33 H33            5.3064     1.6888     0.5705 H       
  34 H34           -3.1688     3.6818    -1.3351 H       
  35 H35            6.6607     4.5872    -2.2591 H       
  36 H36            5.1842     3.6275    -3.9731 H       
  37 H37           -3.1635     6.1406    -1.2362 H       
  38 H38            0.5573     6.0507     0.8635 H       
  39 H39            0.5514     3.5915     0.7717 H       
  40 H40            8.2952     5.1826     0.6514 H       
  41 H41            8.3402     4.5636    -1.0169 H       
  42 H42            7.0374     5.6662    -0.5116 H       
  43 H43            2.9142     1.6795    -5.5773 H       
  44 H44            3.3088     3.2419    -4.8214 H       
  45 H45            4.6145     2.1457    -5.3328 H       
  46 H46           -0.3123     9.3112     0.4963 H       
  47 H47           -0.1437     7.8946     1.5608 H       
  48 H48            0.7320     7.9535     0.0122 H       
@<TRIPOS>BOND
   1    1    2 2
   2    1    4 1
   3    1   11 1
   4    2    3 1
   5    2    6 1
   6    3   12 3
   7    4    5 1
   8    5    6 2
   9    5    7 1
  10    6   10 1
  11    7    8 1
  12    7    9 2
  13    8   13 ar
  14    8   19 ar
  15   10   30 1
  16   10   31 1
  17   11   14 1
  18   11   32 1
  19   13   16 ar
  20   13   33 1
  21   14   15 ar
  22   14   23 ar
  23   15   20 ar
  24   15   34 1
  25   16   17 ar
  26   16   24 1
  27   17   18 ar
  28   17   35 1
  29   18   19 ar
  30   18   36 1
  31   19   26 1
  32   20   21 ar
  33   20   37 1
  34   21   22 ar
  35   21   28 1
  36   22   23 ar
  37   22   38 1
  38   23   39 1
  39   24   25 1
  40   25   40 1
  41   25   41 1
  42   25   42 1
  43   26   27 1
  44   27   43 1
  45   27   44 1
  46   27   45 1
  47   28   29 1
  48   29   46 1
  49   29   47 1
  50   29   48 1

#	End of record

