#	Name: ASD08178187
#	Creating user name:	WinNT
#	Creation time:	15. 06. 2019 21:18

#	Modifying user name:	WinNT
#	Modification time:	15. 06. 2019 21:18

#	Program:	/corina/corina34_cracker 3.40 0067  02.08.2006

@<TRIPOS>MOLECULE
ASD08178187
  62   65    0    0    0
SMALL
NO_CHARGES


@<TRIPOS>ATOM
   1 C1            -0.0191     1.5027     0.0207 C.ar    
   2 C2             0.0010    -0.0042     0.0166 C.3     
   3 C3            -0.8034    -0.5283     1.2078 C.3     
   4 C4            -0.7830    -2.0581     1.2036 C.3     
   5 C5            -1.5874    -2.5822     2.3949 C.3     
   6 C6            -1.5673    -4.0891     2.3907 C.2     
   7 N7            -0.6927    -4.8429     2.9773 N.2     
   8 N8            -0.8496    -6.0897     2.8562 N.2     
   9 C9            -1.8648    -6.5050     2.1605 C.2     
  10 S10           -2.7350    -5.1430     1.5925 S.3     
  11 N11           -2.1939    -7.8350     1.9208 N.am    
  12 C12           -1.4289    -8.8208     2.4301 C.2     
  13 O13           -1.7474   -10.1082     2.1981 O.3     
  14 O14           -0.4518    -8.5477     3.0987 O.2     
  15 C15           -0.8787   -11.1170     2.7778 C.3     
  16 C16            1.1728     2.2124     0.0064 C.ar    
  17 C17            1.1067     3.5974     0.0109 C.ar    
  18 C18           -0.1542     4.1903     0.0295 C.ar    
  19 N19           -1.2376     3.4283     0.0422 N.ar    
  20 N20           -1.1697     2.1466     0.0324 N.ar    
  21 N21           -0.2749     5.5795     0.0353 N.am    
  22 C22           -1.4926     6.1505    -0.0517 C.2     
  23 C23           -1.6342     7.6458     0.0713 C.3     
  24 O24           -2.4744     5.4610    -0.2290 O.2     
  25 C25           -3.0867     8.0253    -0.0606 C.ar    
  26 C26           -3.8892     8.0891     1.0632 C.ar    
  27 C27           -3.6151     8.3153    -1.3046 C.ar    
  28 C28           -4.9474     8.6634    -1.4256 C.ar    
  29 C29           -5.7514     8.7212    -0.3026 C.ar    
  30 C30           -5.2215     8.4372     0.9422 C.ar    
  31 C31           -1.3886   -12.4878     2.4145 C.ar    
  32 C32           -0.9486   -13.1049     1.2584 C.ar    
  33 C33           -1.4163   -14.3624     0.9252 C.ar    
  34 C34           -2.3236   -15.0029     1.7482 C.ar    
  35 C35           -2.7629   -14.3862     2.9048 C.ar    
  36 C36           -2.2919   -13.1306     3.2403 C.ar    
  37 H37           -0.4409    -0.3709    -0.9099 H       
  38 H38            1.0307    -0.3540     0.0914 H       
  39 H39           -0.3615    -0.1615     2.1343 H       
  40 H40           -1.8331    -0.1785     1.1331 H       
  41 H41           -1.2249    -2.4249     0.2772 H       
  42 H42            0.2467    -2.4079     1.2784 H       
  43 H43           -1.1455    -2.2155     3.3213 H       
  44 H44           -2.6171    -2.2324     2.3201 H       
  45 H45           -2.9739    -8.0530     1.3870 H       
  46 H46            0.1326   -10.9913     2.3912 H       
  47 H47           -0.8692   -11.0086     3.8623 H       
  48 H48            2.1241     1.7012    -0.0074 H       
  49 H49            2.0044     4.1978     0.0007 H       
  50 H50            0.5176     6.1349     0.1018 H       
  51 H51           -1.2615     7.9672     1.0438 H       
  52 H52           -1.0588     8.1313    -0.7169 H       
  53 H53           -3.4753     7.8665     2.0356 H       
  54 H54           -2.9870     8.2701    -2.1820 H       
  55 H55           -5.3601     8.8906    -2.3974 H       
  56 H56           -6.7922     8.9936    -0.3970 H       
  57 H57           -5.8496     8.4823     1.8196 H       
  58 H58           -0.2397   -12.6045     0.6154 H       
  59 H59           -1.0731   -14.8442     0.0216 H       
  60 H60           -2.6895   -15.9850     1.4875 H       
  61 H61           -3.4720   -14.8864     3.5476 H       
  62 H62           -2.6350   -12.6487     4.1438 H       
@<TRIPOS>BOND
   1    1    2 1
   2    1   16 ar
   3    1   20 ar
   4    2    3 1
   5    2   37 1
   6    2   38 1
   7    3    4 1
   8    3   39 1
   9    3   40 1
  10    4    5 1
  11    4   41 1
  12    4   42 1
  13    5    6 1
  14    5   43 1
  15    5   44 1
  16    6    7 2
  17    6   10 1
  18    7    8 1
  19    8    9 2
  20    9   10 1
  21    9   11 1
  22   11   12 am
  23   11   45 1
  24   12   13 1
  25   12   14 2
  26   13   15 1
  27   15   31 1
  28   15   46 1
  29   15   47 1
  30   16   17 ar
  31   16   48 1
  32   17   18 ar
  33   17   49 1
  34   18   19 ar
  35   18   21 1
  36   19   20 ar
  37   21   22 am
  38   21   50 1
  39   22   23 1
  40   22   24 2
  41   23   25 1
  42   23   51 1
  43   23   52 1
  44   25   26 ar
  45   25   27 ar
  46   26   30 ar
  47   26   53 1
  48   27   28 ar
  49   27   54 1
  50   28   29 ar
  51   28   55 1
  52   29   30 ar
  53   29   56 1
  54   30   57 1
  55   31   32 ar
  56   31   36 ar
  57   32   33 ar
  58   32   58 1
  59   33   34 ar
  60   33   59 1
  61   34   35 ar
  62   34   60 1
  63   35   36 ar
  64   35   61 1
  65   36   62 1

#	End of record

