#	Name: ASD02448015
#	Creating user name:	WinNT
#	Creation time:	15. 06. 2019 20:21

#	Modifying user name:	WinNT
#	Modification time:	15. 06. 2019 20:21

#	Program:	/corina/corina34_cracker 3.40 0067  02.08.2006

@<TRIPOS>MOLECULE
ASD02448015
  81   87    0    0    0
SMALL
NO_CHARGES


@<TRIPOS>ATOM
   1 C1            -0.0234     1.3522    -0.0539 C.ar    
   2 C2            -0.0044    -0.0279    -0.0458 C.ar    
   3 C3             1.2074    -0.7057    -0.0368 C.ar    
   4 C4             2.4002     0.0042    -0.0365 C.ar    
   5 C5             2.3821     1.3847    -0.0450 C.ar    
   6 C6             1.1702     2.0631    -0.0536 C.ar    
   7 N7             1.1514     3.4611    -0.0627 N.am    
   8 C8             1.0345     4.3697     1.0853 C.3     
   9 C9             1.0547     5.7997     0.6509 C.2     
  10 N10            1.1729     5.9832    -0.6717 N.am    
  11 S11            1.2642     4.4793    -1.3795 S.o2    
  12 O12            0.9705     6.7220     1.4339 O.2     
  13 O13            2.5750     4.3451    -1.9114 O.2     
  14 O14            0.0774     4.3014    -2.1406 O.2     
  15 N15            1.2262    -2.1091    -0.0276 N.pl3   
  16 C16            1.8586    -2.9186    -0.9332 C.2     
  17 C17            0.6253    -2.9168     0.8846 C.2     
  18 N18            0.8618    -4.1595     0.5682 N.2     
  19 C19            1.6189    -4.1989    -0.5468 C.2     
  20 C20            2.1036    -5.4230    -1.2308 C.ar    
  21 C21            1.7814    -6.6828    -0.7233 C.ar    
  22 C22            2.8770    -5.3190    -2.3847 C.ar    
  23 C23            3.3255    -6.4603    -3.0182 C.ar    
  24 C24            3.0084    -7.7089    -2.5090 C.ar    
  25 C25            2.2353    -7.8194    -1.3647 C.ar    
  26 F26            3.4501    -8.8226    -3.1332 F       
  27 F27            1.0278    -6.7906     0.3928 F       
  28 C28           -0.1823    -2.4523     2.0691 C.3     
  29 C29            0.6983    -2.4081     3.2913 C.ar    
  30 C30            1.4605    -1.2835     3.5511 C.ar    
  31 C31            0.7369    -3.4901     4.1522 C.ar    
  32 C32            1.5413    -3.4548     5.2732 C.ar    
  33 C33            2.3152    -2.3266     5.5370 C.ar    
  34 C34            2.2684    -1.2374     4.6692 C.ar    
  35 C35            3.1815    -2.2827     6.7409 C.ar    
  36 C36            3.9555    -1.1545     7.0047 C.ar    
  37 C37            3.2196    -3.3673     7.6149 C.ar    
  38 C38            4.0272    -3.3211     8.7332 C.ar    
  39 C39            4.7975    -2.2007     8.9873 C.ar    
  40 C40            4.7595    -1.1190     8.1260 C.ar    
  41 C41            5.6765    -2.1557    10.2106 C.3     
  42 C42            7.1349    -1.9758     9.7842 C.3     
  43 C43            8.0274    -1.9302    11.0261 C.3     
  44 C44            7.6070    -0.7568    11.9134 C.3     
  45 C45            6.1486    -0.9366    12.3397 C.3     
  46 C46            5.2562    -0.9823    11.0979 C.3     
  47 C47            3.6771     2.1554    -0.0442 C.3     
  48 H48           -0.9660     1.8793    -0.0650 H       
  49 H49           -0.9323    -0.5807    -0.0460 H       
  50 H50            3.3425    -0.5234    -0.0291 H       
  51 H51            0.0984     4.1680     1.6062 H       
  52 H52            1.8659     4.1919     1.7674 H       
  53 H53            1.2029     6.8365    -1.1320 H       
  54 H54            2.4359    -2.6008    -1.7889 H       
  55 H55            3.1250    -4.3464    -2.7834 H       
  56 H56            3.9248    -6.3797    -3.9130 H       
  57 H57            1.9904    -8.7950    -0.9713 H       
  58 H58           -0.5787    -1.4565     1.8707 H       
  59 H59           -1.0071    -3.1441     2.2403 H       
  60 H60            1.4237    -0.4400     2.8776 H       
  61 H61            0.1363    -4.3639     3.9470 H       
  62 H62            1.5704    -4.3000     5.9449 H       
  63 H63            2.8665    -0.3606     4.8687 H       
  64 H64            3.9266    -0.3094     6.3328 H       
  65 H65            2.6181    -4.2423     7.4177 H       
  66 H66            4.0575    -4.1612     9.4112 H       
  67 H67            5.3632    -0.2469     8.3290 H       
  68 H68            5.5729    -3.0873    10.7669 H       
  69 H69            7.4344    -2.8118     9.1521 H       
  70 H70            7.2385    -1.0443     9.2279 H       
  71 H71            7.9237    -2.8618    11.5825 H       
  72 H72            9.0663    -1.8021    10.7224 H       
  73 H73            8.2428    -0.7243    12.7981 H       
  74 H74            7.7106     0.1748    11.3571 H       
  75 H75            6.0450    -1.8682    12.8961 H       
  76 H76            5.8492    -0.1007    12.9719 H       
  77 H77            5.3598    -0.0507    10.5415 H       
  78 H78            4.2172    -1.1104    11.4016 H       
  79 H79            3.9938     2.3348    -1.0716 H       
  80 H80            3.5320     3.1091     0.4632 H       
  81 H81            4.4422     1.5795     0.4765 H       
@<TRIPOS>BOND
   1    1    2 ar
   2    1    6 ar
   3    1   48 1
   4    2    3 ar
   5    2   49 1
   6    3    4 ar
   7    3   15 1
   8    4    5 ar
   9    4   50 1
  10    5    6 ar
  11    5   47 1
  12    6    7 1
  13    7    8 1
  14    7   11 am
  15    8    9 1
  16    8   51 1
  17    8   52 1
  18    9   10 am
  19    9   12 2
  20   10   11 am
  21   10   53 1
  22   11   13 2
  23   11   14 2
  24   15   16 1
  25   15   17 1
  26   16   19 2
  27   16   54 1
  28   17   18 2
  29   17   28 1
  30   18   19 1
  31   19   20 1
  32   20   21 ar
  33   20   22 ar
  34   21   27 1
  35   21   25 ar
  36   22   23 ar
  37   22   55 1
  38   23   24 ar
  39   23   56 1
  40   24   25 ar
  41   24   26 1
  42   25   57 1
  43   28   29 1
  44   28   58 1
  45   28   59 1
  46   29   30 ar
  47   29   31 ar
  48   30   34 ar
  49   30   60 1
  50   31   32 ar
  51   31   61 1
  52   32   33 ar
  53   32   62 1
  54   33   34 ar
  55   33   35 1
  56   34   63 1
  57   35   36 ar
  58   35   37 ar
  59   36   40 ar
  60   36   64 1
  61   37   38 ar
  62   37   65 1
  63   38   39 ar
  64   38   66 1
  65   39   40 ar
  66   39   41 1
  67   40   67 1
  68   41   42 1
  69   41   46 1
  70   41   68 1
  71   42   43 1
  72   42   69 1
  73   42   70 1
  74   43   44 1
  75   43   71 1
  76   43   72 1
  77   44   45 1
  78   44   73 1
  79   44   74 1
  80   45   46 1
  81   45   75 1
  82   45   76 1
  83   46   77 1
  84   46   78 1
  85   47   79 1
  86   47   80 1
  87   47   81 1

#	End of record

