#	Name: ASD03081157
#	Creating user name:	WinNT
#	Creation time:	15. 06. 2019 20:27

#	Modifying user name:	WinNT
#	Modification time:	15. 06. 2019 20:27

#	Program:	/corina/corina34_cracker 3.40 0067  02.08.2006

@<TRIPOS>MOLECULE
ASD03081157
  29   32    0    0    0
SMALL
NO_CHARGES


@<TRIPOS>ATOM
   1 O1            -0.0161     1.3381     0.0094 O.3     
   2 C2             0.0021    -0.0041     0.0020 C.2     
   3 N3             1.2784    -0.4366    -0.0125 N.am    
   4 C4             2.1023     0.6895    -0.0143 C.ar    
   5 C5             1.2572     1.8017    -0.0003 C.ar    
   6 C6             1.7952     3.0812     0.0015 C.ar    
   7 C7             3.1618     3.2563    -0.0106 C.ar    
   8 C8             4.0118     2.1474    -0.0252 C.ar    
   9 C9             3.4743     0.8592    -0.0261 C.ar    
  10 O10           -0.9812    -0.7193     0.0079 O.2     
  11 O11            6.4087     1.3722    -0.0542 O.3     
  12 N12            7.5160     1.8668    -0.0627 N.2     
  13 C13            7.4311     3.1724    -0.0544 C.2     
  14 N14            6.1200     3.4909    -0.0391 N.2     
  15 C15            5.4767     2.3380    -0.0391 C.2     
  16 C16            8.3379     5.5012    -0.0495 C.ar    
  17 C17            8.5677     4.1272    -0.0602 C.ar    
  18 C18            9.8851     3.6625    -0.0759 C.ar    
  19 C19           10.9100     4.5935    -0.0803 C.ar    
  20 C20           10.5996     5.9409    -0.0690 C.ar    
  21 N21            9.3454     6.3496    -0.0537 N.ar    
  22 H22            1.5707    -1.3615    -0.0198 H       
  23 H23            1.1415     3.9408     0.0120 H       
  24 H24            3.5770     4.2533    -0.0093 H       
  25 H25            4.1272    -0.0010    -0.0370 H       
  26 H26            7.3244     5.8742    -0.0418 H       
  27 H27           10.0987     2.6038    -0.0842 H       
  28 H28           11.9406     4.2708    -0.0920 H       
  29 H29           11.3964     6.6700    -0.0723 H       
@<TRIPOS>BOND
   1    1    2 1
   2    1    5 1
   3    2    3 am
   4    2   10 2
   5    3    4 1
   6    3   22 1
   7    4    5 ar
   8    4    9 ar
   9    5    6 ar
  10    6    7 ar
  11    6   23 1
  12    7    8 ar
  13    7   24 1
  14    8    9 ar
  15    8   15 1
  16    9   25 1
  17   11   12 1
  18   11   15 1
  19   12   13 2
  20   13   14 1
  21   13   17 1
  22   14   15 2
  23   16   17 ar
  24   16   21 ar
  25   16   26 1
  26   17   18 ar
  27   18   19 ar
  28   18   27 1
  29   19   20 ar
  30   19   28 1
  31   20   21 ar
  32   20   29 1

#	End of record

