#	Name: ASD01884013
#	Creating user name:	WinNT
#	Creation time:	15. 06. 2019 19:47

#	Modifying user name:	WinNT
#	Modification time:	15. 06. 2019 19:47

#	Program:	/corina/corina34_cracker 3.40 0067  02.08.2006

@<TRIPOS>MOLECULE
ASD01884013
  40   43    0    0    0
SMALL
NO_CHARGES


@<TRIPOS>ATOM
   1 C1             0.1362     1.6473    -0.0760 C.3     
   2 C2             0.3243     0.1290    -0.2659 C.3     
   3 C3             1.7817    -0.3181    -0.1689 C.2     
   4 C4             2.6080     0.4896     0.7625 C.ar    
   5 C5             3.6352    -0.0784     1.5046 C.ar    
   6 C6             4.3690     0.7144     2.3660 C.ar    
   7 C7             4.0800     2.0632     2.4869 C.ar    
   8 C8             3.0619     2.6366     1.7486 C.ar    
   9 C9             2.3185     1.8591     0.8764 C.ar    
  10 O10            1.3334     2.4073     0.1211 O.3     
  11 C11           -0.2886     0.6787     1.0263 C.3     
  12 C12           -0.9418     2.3254    -0.8816 C.2     
  13 O13           -1.3101     1.8411    -1.9309 O.2     
  14 N14           -1.4968     3.4700    -0.4362 N.am    
  15 C15           -2.4281     4.1523    -1.2300 C.ar    
  16 C16           -3.3187     3.4406    -2.0226 C.ar    
  17 C17           -4.2367     4.1137    -2.8044 C.ar    
  18 C18           -4.2689     5.5005    -2.7983 C.ar    
  19 C19           -3.3791     6.2121    -2.0069 C.ar    
  20 C20           -2.4647     5.5402    -1.2200 C.ar    
  21 O21           -5.1727     6.1627    -3.5686 O.3     
  22 C22           -5.1498     7.5904    -3.5135 C.3     
  23 N23            2.2557    -1.3169    -0.8415 N.2     
  24 O24            1.4123    -2.0471    -1.7136 O.3     
  25 H25           -0.3030    -0.4011    -0.9824 H       
  26 H26            3.8584    -1.1309     1.4094 H       
  27 H27            5.1703     0.2811     2.9462 H       
  28 H28            4.6568     2.6741     3.1655 H       
  29 H29            2.8464     3.6899     1.8517 H       
  30 H30            0.3236     0.6433     1.9274 H       
  31 H31           -1.3574     0.5287     1.1789 H       
  32 H32           -1.2514     3.8214     0.4340 H       
  33 H33           -3.2932     2.3610    -2.0280 H       
  34 H34           -4.9294     3.5603    -3.4210 H       
  35 H35           -3.4043     7.2918    -2.0031 H       
  36 H36           -1.7750     6.0942    -0.6005 H       
  37 H37           -5.3406     7.9176    -2.4914 H       
  38 H38           -4.1722     7.9507    -3.8338 H       
  39 H39           -5.9190     7.9919    -4.1731 H       
  40 H40            1.8554    -2.7742    -2.1719 H       
@<TRIPOS>BOND
   1    1    2 1
   2    1   10 1
   3    1   11 1
   4    1   12 1
   5    2    3 1
   6    2   11 1
   7    2   25 1
   8    3    4 1
   9    3   23 2
  10    4    5 ar
  11    4    9 ar
  12    5    6 ar
  13    5   26 1
  14    6    7 ar
  15    6   27 1
  16    7    8 ar
  17    7   28 1
  18    8    9 ar
  19    8   29 1
  20    9   10 1
  21   11   30 1
  22   11   31 1
  23   12   13 2
  24   12   14 am
  25   14   15 1
  26   14   32 1
  27   15   16 ar
  28   15   20 ar
  29   16   17 ar
  30   16   33 1
  31   17   18 ar
  32   17   34 1
  33   18   19 ar
  34   18   21 1
  35   19   20 ar
  36   19   35 1
  37   20   36 1
  38   21   22 1
  39   22   37 1
  40   22   38 1
  41   22   39 1
  42   23   24 1
  43   24   40 1

#	End of record

