#	Name: ASD01810205
#	Creating user name:	WinNT
#	Creation time:	15. 06. 2019 19:24

#	Modifying user name:	WinNT
#	Modification time:	15. 06. 2019 19:24

#	Program:	/corina/corina34_cracker 3.40 0067  02.08.2006

@<TRIPOS>MOLECULE
ASD01810205
  47   50    0    0    0
SMALL
NO_CHARGES


@<TRIPOS>ATOM
   1 C1             0.1038     1.4771     0.3905 C.ar    
   2 C2             0.0850     0.0899     0.3824 C.ar    
   3 C3             1.2535    -0.6295     0.2404 C.ar    
   4 C4             2.4697     0.0388     0.1031 C.ar    
   5 C5             2.4840     1.4435     0.1118 C.ar    
   6 C6             1.2942     2.1570     0.2563 C.ar    
   7 N7             3.6451    -0.6678    -0.0386 N.pl3   
   8 C8             4.8373    -0.0734    -0.1723 C.2     
   9 C9             4.9780     1.2999    -0.1780 C.2     
  10 C10            3.7768     2.1382    -0.0343 C.2     
  11 O11            3.8478     3.3547    -0.0335 O.2     
  12 C12            6.3048     1.9145    -0.3261 C.2     
  13 O13            6.4292     3.2568    -0.3302 O.3     
  14 O14            7.2900     1.2124    -0.4448 O.2     
  15 C15            3.5871    -2.1316    -0.0427 C.3     
  16 C16            3.4445    -2.6248    -1.4595 C.ar    
  17 C17            4.5665    -2.7659    -2.2561 C.ar    
  18 C18            4.4420    -3.2176    -3.5543 C.ar    
  19 C19            3.1828    -3.5316    -4.0622 C.ar    
  20 C20            2.0559    -3.3875    -3.2551 C.ar    
  21 C21            2.1928    -2.9400    -1.9567 C.ar    
  22 C22            3.0425    -4.0171    -5.4569 C.ar    
  23 C23            1.7799    -4.3286    -5.9562 C.ar    
  24 C24            1.6647    -4.7801    -7.2598 C.ar    
  25 C25            2.8174    -4.9051    -8.0217 C.ar    
  26 C26            4.0390    -4.5779    -7.4621 C.ar    
  27 N27            4.1200    -4.1458    -6.2203 N.ar    
  28 F28            1.2196    -1.9801     0.2348 F       
  29 C29            5.2938    -4.7126    -8.2857 C.3     
  30 O30            4.9585    -5.1898    -9.5902 O.3     
  31 H31           -0.8198     2.0265     0.4981 H       
  32 H32           -0.8544    -0.4323     0.4888 H       
  33 H33            1.3061     3.2370     0.2626 H       
  34 H34            5.7183    -0.6888    -0.2788 H       
  35 H35            7.3219     3.6146    -0.4302 H       
  36 H36            4.5030    -2.5327     0.3912 H       
  37 H37            2.7311    -2.4629     0.5452 H       
  38 H38            5.5418    -2.5219    -1.8616 H       
  39 H39            5.3186    -3.3271    -4.1755 H       
  40 H40            1.0776    -3.6294    -3.6437 H       
  41 H41            1.3202    -2.8279    -1.3304 H       
  42 H42            0.9033    -4.2198    -5.3348 H       
  43 H43            0.6991    -5.0297    -7.6743 H       
  44 H44            2.7613    -5.2549    -9.0420 H       
  45 H45            5.7803    -3.7407    -8.3683 H       
  46 H46            5.9708    -5.4179    -7.8037 H       
  47 H47            5.7197    -5.3006   -10.1762 H       
@<TRIPOS>BOND
   1    1    2 ar
   2    1    6 ar
   3    1   31 1
   4    2    3 ar
   5    2   32 1
   6    3    4 ar
   7    3   28 1
   8    4    5 ar
   9    4    7 1
  10    5    6 ar
  11    5   10 1
  12    6   33 1
  13    7    8 1
  14    7   15 1
  15    8    9 2
  16    8   34 1
  17    9   10 1
  18    9   12 1
  19   10   11 2
  20   12   13 1
  21   12   14 2
  22   13   35 1
  23   15   16 1
  24   15   36 1
  25   15   37 1
  26   16   17 ar
  27   16   21 ar
  28   17   18 ar
  29   17   38 1
  30   18   19 ar
  31   18   39 1
  32   19   20 ar
  33   19   22 1
  34   20   21 ar
  35   20   40 1
  36   21   41 1
  37   22   23 ar
  38   22   27 ar
  39   23   24 ar
  40   23   42 1
  41   24   25 ar
  42   24   43 1
  43   25   26 ar
  44   25   44 1
  45   26   27 ar
  46   26   29 1
  47   29   30 1
  48   29   45 1
  49   29   46 1
  50   30   47 1

#	End of record

