#	Name: ASD01910591
#	Creating user name:	WinNT
#	Creation time:	15. 06. 2019 19:56

#	Modifying user name:	WinNT
#	Modification time:	15. 06. 2019 19:56

#	Program:	/corina/corina34_cracker 3.40 0067  02.08.2006

@<TRIPOS>MOLECULE
ASD01910591
  43   46    0    0    0
SMALL
NO_CHARGES


@<TRIPOS>ATOM
   1 C1            -0.6046     2.2787     0.1967 C.ar    
   2 C2            -0.7259     0.8993     0.2612 C.ar    
   3 C3             0.4060     0.1000     0.3013 C.ar    
   4 C4             1.6593     0.6738     0.2766 C.ar    
   5 C5             1.7874     2.0626     0.2112 C.ar    
   6 C6             0.6439     2.8630     0.1715 C.ar    
   7 C7             3.1279     2.6831     0.1845 C.2     
   8 N8             3.3986     3.9752     0.1239 N.2     
   9 C9             4.7378     4.0623     0.1225 C.2     
  10 N10            5.2113     2.8526     0.1806 N.2     
  11 O11            4.3077     2.0446     0.2229 O.3     
  12 C12            5.5467     5.3325     0.0636 C.3     
  13 C13            6.4270     5.4358     1.3112 C.3     
  14 C14            7.2246     6.7412     1.2682 C.3     
  15 C15            8.1327     6.7397     0.0345 C.3     
  16 N16            7.3099     6.4957    -1.1581 N.am    
  17 C17            6.4359     5.3150    -1.1838 C.3     
  18 C18            7.3561     7.3389    -2.2085 C.2     
  19 C19            6.6244     7.0133    -3.4498 C.ar    
  20 O20            7.9998     8.3675    -2.1344 O.2     
  21 C21            5.9322     8.0049    -4.1454 C.ar    
  22 N22            5.2796     7.7160    -5.2521 N.ar    
  23 C23            5.2526     6.4906    -5.7459 C.ar    
  24 C24            5.9166     5.4498    -5.1126 C.ar    
  25 C25            6.6195     5.7043    -3.9508 C.ar    
  26 F26            4.5675     6.2473    -6.8846 F       
  27 F27           -1.9518     0.3319     0.2857 F       
  28 H28           -1.4897     2.8966     0.1616 H       
  29 H29            0.3058    -0.9742     0.3522 H       
  30 H30            2.5405     0.0501     0.3082 H       
  31 H31            0.7374     3.9377     0.1205 H       
  32 H32            4.8751     6.1899     0.0202 H       
  33 H33            5.7981     5.4236     2.2014 H       
  34 H34            7.1149     4.5908     1.3412 H       
  35 H35            6.5375     7.5856     1.2132 H       
  36 H36            7.8337     6.8252     2.1682 H       
  37 H37            8.6287     7.7062    -0.0553 H       
  38 H38            8.8790     5.9512     0.1311 H       
  39 H39            7.0438     4.4103    -1.1866 H       
  40 H40            5.8123     5.3414    -2.0774 H       
  41 H41            5.9312     9.0185    -3.7727 H       
  42 H42            5.8875     4.4523    -5.5255 H       
  43 H43            7.1457     4.9131    -3.4374 H       
@<TRIPOS>BOND
   1    1    2 ar
   2    1    6 ar
   3    1   28 1
   4    2    3 ar
   5    2   27 1
   6    3    4 ar
   7    3   29 1
   8    4    5 ar
   9    4   30 1
  10    5    6 ar
  11    5    7 1
  12    6   31 1
  13    7    8 2
  14    7   11 1
  15    8    9 1
  16    9   10 2
  17    9   12 1
  18   10   11 1
  19   12   13 1
  20   12   17 1
  21   12   32 1
  22   13   14 1
  23   13   33 1
  24   13   34 1
  25   14   15 1
  26   14   35 1
  27   14   36 1
  28   15   16 1
  29   15   37 1
  30   15   38 1
  31   16   17 1
  32   16   18 am
  33   17   39 1
  34   17   40 1
  35   18   19 1
  36   18   20 2
  37   19   21 ar
  38   19   25 ar
  39   21   22 ar
  40   21   41 1
  41   22   23 ar
  42   23   24 ar
  43   23   26 1
  44   24   25 ar
  45   24   42 1
  46   25   43 1

#	End of record

