#	Name: ASD07930615
#	Creating user name:	WinNT
#	Creation time:	15. 06. 2019 21:12

#	Modifying user name:	WinNT
#	Modification time:	15. 06. 2019 21:12

#	Program:	/corina/corina34_cracker 3.40 0067  02.08.2006

@<TRIPOS>MOLECULE
ASD07930615
  48   50    0    0    0
SMALL
NO_CHARGES


@<TRIPOS>ATOM
   1 C1             1.3695     0.7527    -1.5469 C.3     
   2 N2             2.3133    -2.0771    -1.4376 N.2     
   3 N3             0.0354    -2.5821    -1.3054 N.pl3   
   4 C4            -0.8997    -2.7428    -0.1869 C.3     
   5 C5            -1.5451    -1.3871     0.1318 C.3     
   6 S6            -0.2178    -0.1887     0.4727 S.o2    
   7 N7             0.8029    -0.3915    -0.8287 N.am    
   8 C8             1.0894    -1.6979    -1.1989 C.2     
   9 C9            -0.1434    -3.2503     1.0425 C.3     
  10 C10           -1.9705    -3.7336    -0.5646 C.ar    
  11 C11           -1.6887    -4.7474    -1.4615 C.ar    
  12 C12           -2.6781    -5.6614    -1.8086 C.ar    
  13 C13           -3.9453    -5.5527    -1.2536 C.ar    
  14 C14           -4.2220    -4.5377    -0.3577 C.ar    
  15 C15           -3.2350    -3.6318    -0.0088 C.ar    
  16 O16           -0.6965     1.1433     0.3473 O.2     
  17 O17            0.5513    -0.5940     1.5968 O.2     
  18 N18           -2.3960    -6.6893    -2.7172 N.am    
  19 C19           -3.3927    -7.2519    -3.4289 C.2     
  20 O20           -4.5200    -6.8027    -3.3564 O.2     
  21 C21           -3.1149    -8.4155    -4.2981 C.ar    
  22 N22           -1.8800    -8.9080    -4.3780 N.ar    
  23 C23           -1.6339    -9.9436    -5.1512 C.ar    
  24 C24           -2.6661   -10.5267    -5.8880 C.ar    
  25 N25           -3.8962   -10.0374    -5.8101 N.ar    
  26 C26           -4.1469    -9.0017    -5.0303 C.ar    
  27 F27           -0.4540    -4.8500    -2.0003 F       
  28 F28           -3.5086    -2.6405     0.8674 F       
  29 O29           -2.4110   -11.5931    -6.6838 O.3     
  30 C30           -3.5140   -12.1398    -7.4094 C.3     
  31 H31            2.3185     1.0344    -1.0906 H       
  32 H32            1.5341     0.4819    -2.5898 H       
  33 H33            0.6776     1.5933    -1.4946 H       
  34 H34            3.0422    -1.4421    -1.3576 H       
  35 H35           -0.0845    -3.0995    -2.1170 H       
  36 H36           -2.1337    -1.0507    -0.7217 H       
  37 H37           -2.1876    -1.4828     1.0071 H       
  38 H38            0.6914    -2.5829     1.2566 H       
  39 H39           -0.8173    -3.2755     1.8988 H       
  40 H40            0.2346    -4.2540     0.8478 H       
  41 H41           -4.7152    -6.2611    -1.5220 H       
  42 H42           -5.2084    -4.4533     0.0738 H       
  43 H43           -1.4833    -6.9962    -2.8342 H       
  44 H44           -0.6324   -10.3427    -5.2161 H       
  45 H45           -5.1487    -8.6033    -4.9665 H       
  46 H46           -3.1731   -12.9863    -8.0055 H       
  47 H47           -4.2799   -12.4734    -6.7093 H       
  48 H48           -3.9304   -11.3766    -8.0670 H       
@<TRIPOS>BOND
   1    1    7 1
   2    1   31 1
   3    1   32 1
   4    1   33 1
   5    2    8 2
   6    2   34 1
   7    3    4 1
   8    3    8 1
   9    3   35 1
  10    4    5 1
  11    4    9 1
  12    4   10 1
  13    5    6 1
  14    5   36 1
  15    5   37 1
  16    6    7 am
  17    6   16 2
  18    6   17 2
  19    7    8 1
  20    9   38 1
  21    9   39 1
  22    9   40 1
  23   10   11 ar
  24   10   15 ar
  25   11   12 ar
  26   11   27 1
  27   12   13 ar
  28   12   18 1
  29   13   14 ar
  30   13   41 1
  31   14   15 ar
  32   14   42 1
  33   15   28 1
  34   18   19 am
  35   18   43 1
  36   19   20 2
  37   19   21 1
  38   21   22 ar
  39   21   26 ar
  40   22   23 ar
  41   23   24 ar
  42   23   44 1
  43   24   25 ar
  44   24   29 1
  45   25   26 ar
  46   26   45 1
  47   29   30 1
  48   30   46 1
  49   30   47 1
  50   30   48 1

#	End of record

