#	Name: ASD03240955
#	Creating user name:	WinNT
#	Creation time:	15. 06. 2019 20:35

#	Modifying user name:	WinNT
#	Modification time:	15. 06. 2019 20:35

#	Program:	/corina/corina34_cracker 3.40 0067  02.08.2006

@<TRIPOS>MOLECULE
ASD03240955
  60   66    0    0    0
SMALL
NO_CHARGES


@<TRIPOS>ATOM
   1 C1            -0.0600     0.3560     1.4114 C.3     
   2 C2             0.2848    -1.1337     1.5754 C.3     
   3 C3             1.6541    -0.6774     2.1063 C.3     
   4 C4             1.4517     0.6121     1.2933 C.3     
   5 O5            -0.7851     0.6474     0.2150 O.3     
   6 C6             2.8025    -1.5236     1.6203 C.ar    
   7 C7             3.9266    -1.6793     2.4114 C.ar    
   8 C8             4.9811    -2.4532     1.9720 C.ar    
   9 C9             4.9120    -3.0790     0.7278 C.ar    
  10 C10            3.7763    -2.9184    -0.0650 C.ar    
  11 C11            2.7259    -2.1463     0.3874 C.ar    
  12 N12            6.6125    -7.0940    -1.2887 N.pl3   
  13 C13            7.6536    -7.9706    -1.4750 C.2     
  14 N14            8.9561    -7.6228    -1.1219 N.pl3   
  15 C15            9.2926    -6.1899    -1.1360 C.3     
  16 C16            8.1370    -5.3691    -0.6226 C.ar    
  17 N17            8.3694    -4.1929    -0.0693 N.ar    
  18 C18            7.3618    -3.4492     0.3735 C.ar    
  19 C19            6.0412    -3.9111     0.2500 C.ar    
  20 N20            5.8113    -5.1000    -0.2992 N.ar    
  21 C21            6.8225    -5.8347    -0.7264 C.ar    
  22 C22            7.1489    -9.0942    -2.0193 C.2     
  23 C23            5.7677    -8.9080    -2.1781 C.2     
  24 N24            5.4537    -7.7104    -1.7401 N.2     
  25 C25            7.6310    -2.1330     0.9981 C.ar    
  26 C26            8.6418    -2.0035     1.9501 C.ar    
  27 C27            8.8878    -0.7751     2.5284 C.ar    
  28 C28            8.1338     0.3267     2.1658 C.ar    
  29 C29            7.1295     0.2044     1.2223 C.ar    
  30 C30            6.8785    -1.0175     0.6322 C.ar    
  31 C31           -0.6917     0.9796     2.6575 C.3     
  32 C32           -0.9344     2.4902     2.6458 C.3     
  33 C33           -2.1157     1.5247     2.5302 C.3     
  34 N34            1.6790    -0.4594     3.5588 N.3     
  35 H35           -0.3250    -1.6434     2.3213 H       
  36 H36            0.3411    -1.6753     0.6312 H       
  37 H37            1.8270     0.5477     0.2719 H       
  38 H38            1.7840     1.5116     1.8114 H       
  39 H39           -0.3861     0.2808    -0.5859 H       
  40 H40            3.9791    -1.1938     3.3747 H       
  41 H41            5.8584    -2.5737     2.5902 H       
  42 H42            3.7172    -3.4007    -1.0296 H       
  43 H43            1.8441    -2.0245    -0.2241 H       
  44 H44            9.6115    -8.2949    -0.8774 H       
  45 H45           10.1639    -6.0190    -0.5037 H       
  46 H46            9.5245    -5.8851    -2.1565 H       
  47 H47            7.7072    -9.9793    -2.2862 H       
  48 H48            5.0778    -9.6290    -2.5912 H       
  49 H49            9.2306    -2.8631     2.2345 H       
  50 H50            9.6703    -0.6736     3.2658 H       
  51 H51            8.3298     1.2861     2.6214 H       
  52 H52            6.5440     1.0680     0.9435 H       
  53 H53            6.0976    -1.1107    -0.1081 H       
  54 H54           -0.4104     0.5224     3.6062 H       
  55 H55           -0.8132     3.0267     3.5869 H       
  56 H56           -0.6441     3.0397     1.7504 H       
  57 H57           -2.6024     1.4390     1.5587 H       
  58 H58           -2.7715     1.4260     3.3952 H       
  59 H59            2.6222    -0.3140     3.8865 H       
  60 H60            1.0829     0.3119     3.8190 H       
@<TRIPOS>BOND
   1    1    2 1
   2    1    4 1
   3    1    5 1
   4    1   31 1
   5    2    3 1
   6    2   35 1
   7    2   36 1
   8    3    4 1
   9    3    6 1
  10    3   34 1
  11    4   37 1
  12    4   38 1
  13    5   39 1
  14    6    7 ar
  15    6   11 ar
  16    7    8 ar
  17    7   40 1
  18    8    9 ar
  19    8   41 1
  20    9   10 ar
  21    9   19 1
  22   10   11 ar
  23   10   42 1
  24   11   43 1
  25   12   13 1
  26   12   21 1
  27   12   24 1
  28   13   14 1
  29   13   22 2
  30   14   15 1
  31   14   44 1
  32   15   16 1
  33   15   45 1
  34   15   46 1
  35   16   17 ar
  36   16   21 ar
  37   17   18 ar
  38   18   19 ar
  39   18   25 1
  40   19   20 ar
  41   20   21 ar
  42   22   23 1
  43   22   47 1
  44   23   24 2
  45   23   48 1
  46   25   26 ar
  47   25   30 ar
  48   26   27 ar
  49   26   49 1
  50   27   28 ar
  51   27   50 1
  52   28   29 ar
  53   28   51 1
  54   29   30 ar
  55   29   52 1
  56   30   53 1
  57   31   32 1
  58   31   33 1
  59   31   54 1
  60   32   33 1
  61   32   55 1
  62   32   56 1
  63   33   57 1
  64   33   58 1
  65   34   59 1
  66   34   60 1

#	End of record

