#	Name: ASD01918475
#	Creating user name:	WinNT
#	Creation time:	15. 06. 2019 20:11

#	Modifying user name:	WinNT
#	Modification time:	15. 06. 2019 20:11

#	Program:	/corina/corina34_cracker 3.40 0067  02.08.2006

@<TRIPOS>MOLECULE
ASD01918475
  41   44    0    0    0
SMALL
NO_CHARGES


@<TRIPOS>ATOM
   1 F1             0.0021    -0.0041     0.0020 F       
   2 C2            -0.0169     1.3948     0.0097 C.3     
   3 F3            -1.0741     1.9877    -0.6889 F       
   4 C4             0.4802     2.1011     1.2726 C.3     
   5 C5             1.3305     2.1196     0.0007 C.3     
   6 H6             2.2317     1.5066    -0.0112 H       
   7 C7             1.4184     3.4377    -0.7711 C.3     
   8 N8             2.8031     3.9161    -0.7645 N.am    
   9 C9             3.2487     4.7874     0.3162 C.3     
  10 C10            4.6742     4.4811     0.7722 C.3     
  11 N11            5.5441     4.3650    -0.4037 N.pl3   
  12 N12            6.7859     4.6246    -0.5326 N.2     
  13 C13            7.1910     4.3855    -1.7582 C.2     
  14 C14            8.5915     4.5750    -2.2815 C.3     
  15 O15            8.6380     4.2077    -3.6617 O.3     
  16 C16            9.8377     4.3207    -4.2901 C.ar    
  17 C17           10.9486     4.7701    -3.5912 C.ar    
  18 C18           12.1671     4.8836    -4.2321 C.ar    
  19 C19           12.2799     4.5501    -5.5692 C.ar    
  20 C20           11.1741     4.1023    -6.2681 C.ar    
  21 C21            9.9548     3.9812    -5.6302 C.ar    
  22 C22            6.0918     3.9225    -2.4941 C.2     
  23 C23            5.0511     3.9168    -1.6097 C.2     
  24 C24            3.6394     3.5327    -1.7605 C.2     
  25 O25            3.2439     2.9089    -2.7269 O.2     
  26 H26           -0.0165     3.0280     1.5595 H       
  27 H27            0.8221     1.4759     2.0974 H       
  28 H28            1.0938     3.2790    -1.7994 H       
  29 H29            0.7755     4.1797    -0.2975 H       
  30 H30            3.2030     5.8219    -0.0244 H       
  31 H31            2.5748     4.6685     1.1646 H       
  32 H32            5.0328     5.2874     1.4120 H       
  33 H33            4.6851     3.5430     1.3271 H       
  34 H34            8.8814     5.6202    -2.1736 H       
  35 H35            9.2791     3.9469    -1.7150 H       
  36 H36           10.8608     5.0315    -2.5469 H       
  37 H37           13.0322     5.2335    -3.6884 H       
  38 H38           13.2333     4.6398    -6.0686 H       
  39 H39           11.2647     3.8428    -7.3125 H       
  40 H40            9.0924     3.6272    -6.1754 H       
  41 H41            6.0719     3.6331    -3.5344 H       
@<TRIPOS>BOND
   1    1    2 1
   2    2    5 1
   3    2    3 1
   4    2    4 1
   5    4    5 1
   6    4   26 1
   7    4   27 1
   8    5    6 1
   9    5    7 1
  10    7    8 1
  11    7   28 1
  12    7   29 1
  13    8   24 am
  14    8    9 1
  15    9   10 1
  16    9   30 1
  17    9   31 1
  18   10   11 1
  19   10   32 1
  20   10   33 1
  21   11   23 1
  22   11   12 1
  23   12   13 2
  24   13   14 1
  25   13   22 1
  26   14   15 1
  27   14   34 1
  28   14   35 1
  29   15   16 1
  30   16   21 ar
  31   16   17 ar
  32   17   18 ar
  33   17   36 1
  34   18   19 ar
  35   18   37 1
  36   19   20 ar
  37   19   38 1
  38   20   21 ar
  39   20   39 1
  40   21   40 1
  41   22   23 2
  42   22   41 1
  43   23   24 1
  44   24   25 2

#	End of record

