#	Name: ASD04590531
#	Creating user name:	WinNT
#	Creation time:	15. 06. 2019 20:51

#	Modifying user name:	WinNT
#	Modification time:	15. 06. 2019 20:51

#	Program:	/corina/corina34_cracker 3.40 0067  02.08.2006

@<TRIPOS>MOLECULE
ASD04590531
  54   58    0    0    0
SMALL
NO_CHARGES


@<TRIPOS>ATOM
   1 C1            -0.0137     1.3800     0.0584 C.ar    
   2 C2             0.0044    -0.0074     0.0433 C.ar    
   3 C3            -2.3882    -0.0483     0.0588 C.ar    
   4 C4            -2.4063     1.3574     0.0861 C.ar    
   5 C5            -1.2114     2.0634     0.0797 C.ar    
   6 N6            -3.6778    -0.4658     0.0727 N.2     
   7 C7            -4.4768     0.5732     0.1063 C.2     
   8 N8            -3.7378     1.7257     0.1159 N.pl3   
   9 C9            -5.9528     0.5099     0.1302 C.2     
  10 C10           -6.7344    -0.6683     0.1214 C.2     
  11 C11           -8.0381    -0.2998     0.1505 C.2     
  12 N12           -8.0868     1.0583     0.1769 N.pl3   
  13 N13           -6.7725     1.5421     0.1694 N.2     
  14 N14           -6.2465    -1.9859     0.0879 N.am    
  15 C15           -7.1070    -3.0232     0.0831 C.2     
  16 O16           -8.3055    -2.8191     0.1077 O.2     
  17 C17           -1.1613    -0.7196     0.0431 C.ar    
  18 N18           -6.6391    -4.2867     0.0510 N.am    
  19 C19            1.2845     2.1454     0.0578 C.3     
  20 N20            1.6968     2.4090    -1.3272 N.3     
  21 C21            2.8246     3.3511    -1.3709 C.3     
  22 C22            3.2596     3.5509    -2.8251 C.3     
  23 O23            2.1428     4.0073    -3.5932 O.3     
  24 C24            1.0266     3.1134    -3.5732 C.3     
  25 C25            0.5689     2.9092    -2.1266 C.3     
  26 C26           -7.5255    -5.3640     0.1598 C.ar    
  27 C27           -7.2812    -6.5394    -0.5383 C.ar    
  28 C28           -8.6483    -5.2621     0.9705 C.ar    
  29 C29           -9.5213    -6.3272     1.0757 C.ar    
  30 C30           -9.2782    -7.4941     0.3748 C.ar    
  31 C31           -8.1580    -7.6009    -0.4289 C.ar    
  32 H32            0.9497    -0.5295     0.0312 H       
  33 H33           -1.2195     3.1433     0.0918 H       
  34 H34           -4.0841     2.6314     0.1392 H       
  35 H35           -8.8876    -0.9667     0.1524 H       
  36 H36           -8.8920     1.5986     0.2004 H       
  37 H37           -5.2905    -2.1487     0.0682 H       
  38 H38           -1.1356    -1.7992     0.0305 H       
  39 H39           -5.6879    -4.4493    -0.0476 H       
  40 H40            1.1491     3.0909     0.5829 H       
  41 H41            2.0529     1.5577     0.5601 H       
  42 H42            2.5164     4.3076    -0.9485 H       
  43 H43            3.6573     2.9491    -0.7939 H       
  44 H44            4.0578     4.2920    -2.8677 H       
  45 H45            3.6183     2.6050    -3.2310 H       
  46 H46            0.2098     3.5380    -4.1569 H       
  47 H47            1.3203     2.1547    -4.0008 H       
  48 H48           -0.2449     2.1845    -2.1012 H       
  49 H49            0.2247     3.8585    -1.7163 H       
  50 H50           -6.4067    -6.6232    -1.1665 H       
  51 H51           -8.8386    -4.3511     1.5185 H       
  52 H52          -10.3945    -6.2486     1.7064 H       
  53 H53           -9.9622    -8.3257     0.4591 H       
  54 H54           -7.9711    -8.5135    -0.9753 H       
@<TRIPOS>BOND
   1    1    2 ar
   2    1   19 1
   3    1    5 ar
   4    2   17 ar
   5    2   32 1
   6    3    4 ar
   7    3    6 1
   8    3   17 ar
   9    4    5 ar
  10    4    8 1
  11    5   33 1
  12    6    7 2
  13    7    8 1
  14    7    9 1
  15    8   34 1
  16    9   10 1
  17    9   13 2
  18   10   11 2
  19   10   14 1
  20   11   12 1
  21   11   35 1
  22   12   13 1
  23   12   36 1
  24   14   15 am
  25   14   37 1
  26   15   16 2
  27   15   18 am
  28   17   38 1
  29   18   26 1
  30   18   39 1
  31   19   20 1
  32   19   40 1
  33   19   41 1
  34   20   21 1
  35   20   25 1
  36   21   22 1
  37   21   42 1
  38   21   43 1
  39   22   23 1
  40   22   44 1
  41   22   45 1
  42   23   24 1
  43   24   25 1
  44   24   46 1
  45   24   47 1
  46   25   48 1
  47   25   49 1
  48   26   27 ar
  49   26   28 ar
  50   27   31 ar
  51   27   50 1
  52   28   29 ar
  53   28   51 1
  54   29   30 ar
  55   29   52 1
  56   30   31 ar
  57   30   53 1
  58   31   54 1

#	End of record

