#	Name: ASD01915664
#	Creating user name:	WinNT
#	Creation time:	15. 06. 2019 20:05

#	Modifying user name:	WinNT
#	Modification time:	15. 06. 2019 20:05

#	Program:	/corina/corina34_cracker 3.40 0067  02.08.2006

@<TRIPOS>MOLECULE
ASD01915664
  41   44    0    0    0
SMALL
NO_CHARGES


@<TRIPOS>ATOM
   1 C1            -0.0042     1.4685     0.2349 C.2     
   2 N2             0.0662     0.1191    -0.0301 N.pl3   
   3 C3            -1.1429    -0.6636    -0.3130 C.3     
   4 C4            -2.3280    -0.0486     0.4295 C.3     
   5 N5            -2.4044     1.3988     0.2638 N.am    
   6 C6            -1.2935     2.1742     0.2863 C.2     
   7 C7             1.2763     1.9058     0.4260 C.2     
   8 C8             2.0758     0.7649     0.2737 C.2     
   9 N9             1.2864    -0.2504     0.0108 N.2     
  10 C10            3.5774     0.7130     0.3907 C.3     
  11 O11            4.0777     2.0189     0.6848 O.3     
  12 C12            5.4240     2.1472     0.8234 C.ar    
  13 O13           -1.3590     3.3874     0.3463 O.2     
  14 C14            5.9774     3.3866     1.1091 C.ar    
  15 C15            6.2450     1.0378     0.6848 C.ar    
  16 C16            7.6129     1.1697     0.8259 C.ar    
  17 C17            8.1644     2.4084     1.1059 C.ar    
  18 C18            7.3456     3.5156     1.2496 C.ar    
  19 C19           -3.6541     2.0003     0.0771 C.ar    
  20 C20           -4.5855     2.0028     1.1072 C.ar    
  21 F21            9.5022     2.5358     1.2445 F       
  22 C22           -3.9626     2.6005    -1.1366 C.ar    
  23 C23           -5.1965     3.1936    -1.3187 C.ar    
  24 C24           -6.1256     3.1903    -0.2920 C.ar    
  25 C25           -5.8182     2.5969     0.9209 C.ar    
  26 F26           -7.3319     3.7714    -0.4720 F       
  27 H27           -1.3403    -0.6536    -1.3849 H       
  28 H28           -0.9977    -1.6910     0.0211 H       
  29 H29           -3.2488    -0.4952     0.0543 H       
  30 H30           -2.2354    -0.2771     1.4913 H       
  31 H31            1.6015     2.9119     0.6461 H       
  32 H32            3.8559     0.0283     1.1918 H       
  33 H33            4.0033     0.3640    -0.5500 H       
  34 H34            5.3389     4.2504     1.2212 H       
  35 H35            5.8150     0.0713     0.4671 H       
  36 H36            8.2524     0.3061     0.7181 H       
  37 H37            7.7771     4.4813     1.4680 H       
  38 H38           -4.3461     1.5401     2.0533 H       
  39 H39           -3.2379     2.6039    -1.9374 H       
  40 H40           -5.4368     3.6605    -2.2625 H       
  41 H41           -6.5444     2.5952     1.7202 H       
@<TRIPOS>BOND
   1    1    2 1
   2    1    7 2
   3    1    6 1
   4    2    3 1
   5    2    9 1
   6    3    4 1
   7    3   27 1
   8    3   28 1
   9    4    5 1
  10    4   29 1
  11    4   30 1
  12    5    6 am
  13    5   19 1
  14    6   13 2
  15    7    8 1
  16    7   31 1
  17    8    9 2
  18    8   10 1
  19   10   11 1
  20   10   32 1
  21   10   33 1
  22   11   12 1
  23   12   14 ar
  24   12   15 ar
  25   14   18 ar
  26   14   34 1
  27   15   16 ar
  28   15   35 1
  29   16   17 ar
  30   16   36 1
  31   17   18 ar
  32   17   21 1
  33   18   37 1
  34   19   20 ar
  35   19   22 ar
  36   20   25 ar
  37   20   38 1
  38   22   23 ar
  39   22   39 1
  40   23   24 ar
  41   23   40 1
  42   24   25 ar
  43   24   26 1
  44   25   41 1

#	End of record

