#	Name: ASD06170001
#	Creating user name:	WinNT
#	Creation time:	15. 06. 2019 21:05

#	Modifying user name:	WinNT
#	Modification time:	15. 06. 2019 21:05

#	Program:	/corina/corina34_cracker 3.40 0067  02.08.2006

@<TRIPOS>MOLECULE
ASD06170001
  70   75    0    0    0
SMALL
NO_CHARGES


@<TRIPOS>ATOM
   1 N1            -0.0676    -2.0848     0.5384 N.pl3   
   2 N2            -0.2016    -0.7659     0.0953 N.am    
   3 C3             1.0211    -0.2030     0.0204 C.2     
   4 C4             1.9889    -1.2252     0.4409 C.2     
   5 C5             1.2494    -2.3667     0.7481 C.2     
   6 C6             3.4449    -1.0748     0.5213 C.2     
   7 O7             4.1364    -2.0179     0.8588 O.2     
   8 N8             4.0178     0.1077     0.2216 N.am    
   9 C9             3.1620    -4.9363     2.7145 C.ar    
  10 C10            2.6747    -3.7098     2.3085 C.ar    
  11 C11            1.7972    -3.6554     1.2187 C.ar    
  12 C12            1.4532    -4.8573     0.5879 C.ar    
  13 C13            1.9887    -6.0386     1.0617 C.ar    
  14 N14            2.8118    -6.0442     2.0915 N.ar    
  15 C15           -1.4084    -0.1330    -0.2198 C.ar    
  16 C16           -1.6751     1.1395     0.2687 C.ar    
  17 C17           -2.8677     1.7617    -0.0443 C.ar    
  18 C18           -3.7960     1.1188    -0.8426 C.ar    
  19 C19           -3.5337    -0.1484    -1.3301 C.ar    
  20 C20           -2.3402    -0.7734    -1.0264 C.ar    
  21 O21            1.2748     0.9348    -0.3292 O.2     
  22 C22           -1.1749    -3.0201     0.7511 C.3     
  23 C23            5.4130     0.2224     0.1926 C.ar    
  24 C24            6.1893    -0.8489    -0.2304 C.ar    
  25 C25            7.5664    -0.7346    -0.2591 C.ar    
  26 C26            8.1731     0.4521     0.1352 C.ar    
  27 C27            7.3971     1.5208     0.5571 C.ar    
  28 C28            6.0203     1.4088     0.5811 C.ar    
  29 F29            8.3225    -1.7761    -0.6699 F       
  30 O30            9.5280     0.5648     0.1075 O.3     
  31 N31           11.3033     1.4418    -3.5106 N.ar    
  32 C32            9.9954     1.4027    -3.4094 C.ar    
  33 C33            9.3621     1.1108    -2.2080 C.ar    
  34 C34           10.1187     0.8521    -1.0786 C.ar    
  35 C35           11.5259     0.8970    -1.1993 C.ar    
  36 C36           12.3591     0.6456    -0.0990 C.ar    
  37 C37           13.7145     0.6970    -0.2523 C.ar    
  38 C38           14.2821     0.9991    -1.4983 C.ar    
  39 C39           13.4945     1.2483    -2.5851 C.ar    
  40 C40           12.0962     1.2019    -2.4593 C.ar    
  41 O41           15.6342     1.0448    -1.6257 O.3     
  42 C42           16.1538     1.3576    -2.9196 C.3     
  43 O43           14.5222     0.4534     0.8141 O.3     
  44 C44           13.8834     0.1519     2.0563 C.3     
  45 H45            3.4636     0.8794     0.0259 H       
  46 H46            3.8430    -4.9883     3.5512 H       
  47 H47            2.9657    -2.8063     2.8238 H       
  48 H48            0.7792    -4.8604    -0.2560 H       
  49 H49            1.7296    -6.9709     0.5820 H       
  50 H50           -0.9508     1.6418     0.8928 H       
  51 H51           -3.0757     2.7512     0.3352 H       
  52 H52           -4.7280     1.6074    -1.0855 H       
  53 H53           -4.2611    -0.6480    -1.9528 H       
  54 H54           -2.1338    -1.7610    -1.4117 H       
  55 H55           -2.1222    -2.5011     0.6045 H       
  56 H56           -1.0975    -3.8427     0.0401 H       
  57 H57           -1.1291    -3.4124     1.7670 H       
  58 H58            5.7171    -1.7708    -0.5362 H       
  59 H59            7.8690     2.4425     0.8637 H       
  60 H60            5.4165     2.2432     0.9060 H       
  61 H61            9.3949     1.6030    -4.2844 H       
  62 H62            8.2836     1.0866    -2.1554 H       
  63 H63           11.9303     0.4129     0.8645 H       
  64 H64           13.9450     1.4804    -3.5388 H       
  65 H65           15.8171     0.6092    -3.6370 H       
  66 H66           15.7973     2.3410    -3.2263 H       
  67 H67           17.2431     1.3613    -2.8826 H       
  68 H68           13.2518     0.9893     2.3527 H       
  69 H69           13.2711    -0.7426     1.9423 H       
  70 H70           14.6402    -0.0209     2.8215 H       
@<TRIPOS>BOND
   1    1    2 1
   2    1    5 1
   3    1   22 1
   4    2    3 am
   5    2   15 1
   6    3    4 1
   7    3   21 2
   8    4    5 2
   9    4    6 1
  10    5   11 1
  11    6    7 2
  12    6    8 am
  13    8   23 1
  14    8   45 1
  15    9   10 ar
  16    9   14 ar
  17    9   46 1
  18   10   11 ar
  19   10   47 1
  20   11   12 ar
  21   12   13 ar
  22   12   48 1
  23   13   14 ar
  24   13   49 1
  25   15   16 ar
  26   15   20 ar
  27   16   17 ar
  28   16   50 1
  29   17   18 ar
  30   17   51 1
  31   18   19 ar
  32   18   52 1
  33   19   20 ar
  34   19   53 1
  35   20   54 1
  36   22   55 1
  37   22   56 1
  38   22   57 1
  39   23   24 ar
  40   23   28 ar
  41   24   25 ar
  42   24   58 1
  43   25   26 ar
  44   25   29 1
  45   26   27 ar
  46   26   30 1
  47   27   28 ar
  48   27   59 1
  49   28   60 1
  50   30   34 1
  51   31   32 ar
  52   31   40 ar
  53   32   33 ar
  54   32   61 1
  55   33   34 ar
  56   33   62 1
  57   34   35 ar
  58   35   36 ar
  59   35   40 ar
  60   36   37 ar
  61   36   63 1
  62   37   38 ar
  63   37   43 1
  64   38   39 ar
  65   38   41 1
  66   39   40 ar
  67   39   64 1
  68   41   42 1
  69   42   65 1
  70   42   66 1
  71   42   67 1
  72   43   44 1
  73   44   68 1
  74   44   69 1
  75   44   70 1

#	End of record

