#	Name: ASD01917012
#	Creating user name:	WinNT
#	Creation time:	15. 06. 2019 20:08

#	Modifying user name:	WinNT
#	Modification time:	15. 06. 2019 20:08

#	Program:	/corina/corina34_cracker 3.40 0067  02.08.2006

@<TRIPOS>MOLECULE
ASD01917012
  36   38    0    0    0
SMALL
NO_CHARGES


@<TRIPOS>ATOM
   1 C1            -0.0168     1.3841     0.0097 C.ar    
   2 C2             0.0021    -0.0041     0.0020 C.ar    
   3 C3            -1.1819    -0.7111     0.0095 C.ar    
   4 C4            -2.3982    -0.0308     0.0248 C.ar    
   5 C5            -2.4140     1.3628     0.0324 C.ar    
   6 C6            -1.2267     2.0645     0.0306 C.ar    
   7 C7            -3.6738    -0.7887     0.0324 C.2     
   8 N8            -4.8982    -0.2496     0.0469 N.2     
   9 C9            -5.8037    -1.2054     0.0500 C.2     
  10 N10           -5.1570    -2.3944     0.0372 N.pl3   
  11 N11           -3.7842    -2.0996     0.0203 N.2     
  12 C12           -7.2702    -1.0134     0.0656 C.ar    
  13 C13           -7.8070     0.2748     0.0782 C.ar    
  14 C14           -8.1206    -2.1201     0.0619 C.ar    
  15 C15           -9.4866    -1.9374     0.0765 C.ar    
  16 C16          -10.0172    -0.6540     0.0943 C.ar    
  17 C17           -9.1741     0.4497     0.0927 C.ar    
  18 O18          -11.3639    -0.4778     0.1082 O.3     
  19 O19            1.1513     2.0781     0.0022 O.3     
  20 C20            1.0588     3.5041     0.0108 C.3     
  21 C21          -11.8418     0.8688     0.1263 C.3     
  22 H22            0.9449    -0.5307    -0.0102 H       
  23 H23           -1.1667    -1.7910     0.0032 H       
  24 H24           -3.3550     1.8926     0.0439 H       
  25 H25           -1.2383     3.1444     0.0365 H       
  26 H26           -5.5619    -3.2758     0.0362 H       
  27 H27           -7.1520     1.1335     0.0769 H       
  28 H28           -7.7087    -3.1184     0.0473 H       
  29 H29          -10.1453    -2.7933     0.0736 H       
  30 H30           -9.5902     1.4463     0.1070 H       
  31 H31            0.5141     3.8381    -0.8723 H       
  32 H32            0.5311     3.8285     0.9076 H       
  33 H33            2.0607     3.9332     0.0035 H       
  34 H34          -11.4711     1.3740     1.0182 H       
  35 H35          -11.4871     1.3922    -0.7616 H       
  36 H36          -12.9318     0.8674     0.1361 H       
@<TRIPOS>BOND
   1    1    2 ar
   2    1   19 1
   3    1    6 ar
   4    2    3 ar
   5    2   22 1
   6    3    4 ar
   7    3   23 1
   8    4    5 ar
   9    4    7 1
  10    5    6 ar
  11    5   24 1
  12    6   25 1
  13    7    8 1
  14    7   11 2
  15    8    9 2
  16    9   10 1
  17    9   12 1
  18   10   11 1
  19   10   26 1
  20   12   13 ar
  21   12   14 ar
  22   13   17 ar
  23   13   27 1
  24   14   15 ar
  25   14   28 1
  26   15   16 ar
  27   15   29 1
  28   16   17 ar
  29   16   18 1
  30   17   30 1
  31   18   21 1
  32   19   20 1
  33   20   31 1
  34   20   32 1
  35   20   33 1
  36   21   34 1
  37   21   35 1
  38   21   36 1

#	End of record

