#	Name: ASD02030475
#	Creating user name:	WinNT
#	Creation time:	15. 06. 2019 20:15

#	Modifying user name:	WinNT
#	Modification time:	15. 06. 2019 20:15

#	Program:	/corina/corina34_cracker 3.40 0067  02.08.2006

@<TRIPOS>MOLECULE
ASD02030475
  20   21    0    0    0
SMALL
NO_CHARGES


@<TRIPOS>ATOM
   1 C1            -0.0169     1.3981     0.0097 C.ar    
   2 C2             0.0021    -0.0041     0.0020 C.ar    
   3 C3             1.1950    -0.6671    -0.0549 C.ar    
   4 C4             2.3920     0.0364    -0.0949 C.ar    
   5 C5             2.3975     1.4159    -0.0641 C.ar    
   6 C6             1.1962     2.1116     0.0020 C.ar    
   7 O7             1.1942     3.4635     0.0824 O.3     
   8 C8             0.1022     4.0924    -0.4067 C.2     
   9 C9            -1.2154     3.4772    -0.1626 C.2     
  10 C10           -1.2487     2.1017     0.0312 C.2     
  11 O11            0.2033     5.1334    -1.0283 O.2     
  12 C12           -2.4436     4.2862    -0.1248 C.2     
  13 O13           -3.5167     3.7528     0.0784 O.2     
  14 O14           -2.3788     5.6190    -0.3155 O.3     
  15 Br15           1.2170    -2.5578    -0.0788 Br      
  16 Br16           4.0365     2.3580    -0.1113 Br      
  17 H17           -0.9240    -0.5583     0.0413 H       
  18 H18            3.3270    -0.5013    -0.1501 H       
  19 H19           -2.1829     1.5843     0.1923 H       
  20 H20           -3.2122     6.1084    -0.2817 H       
@<TRIPOS>BOND
   1    1    2 ar
   2    1    6 ar
   3    1   10 1
   4    2    3 ar
   5    2   17 1
   6    3    4 ar
   7    3   15 1
   8    4    5 ar
   9    4   18 1
  10    5    6 ar
  11    5   16 1
  12    6    7 1
  13    7    8 1
  14    8    9 1
  15    8   11 2
  16    9   10 2
  17    9   12 1
  18   10   19 1
  19   12   13 2
  20   12   14 1
  21   14   20 1

#	End of record

