#	Name: ASD03240268
#	Creating user name:	WinNT
#	Creation time:	15. 06. 2019 20:34

#	Modifying user name:	WinNT
#	Modification time:	15. 06. 2019 20:34

#	Program:	/corina/corina34_cracker 3.40 0067  02.08.2006

@<TRIPOS>MOLECULE
ASD03240268
  87   92    0    0    0
SMALL
NO_CHARGES


@<TRIPOS>ATOM
   1 C1            -0.0162     1.3741    -0.0449 C.2     
   2 N2             0.0028    -0.0006    -0.0572 N.pl3   
   3 C3            -3.6506     2.2724     0.0299 C.3     
   4 C4            -2.4743     1.2946    -0.0003 C.3     
   5 N5            -1.2160     2.0447    -0.0170 N.pl3   
   6 N6             1.1034     2.0414    -0.0544 N.2     
   7 N7            -4.9089     1.5223     0.0466 N.pl3   
   8 C8            -6.1208     2.1997     0.0748 C.ar    
   9 C9            -7.3258     1.4812     0.0908 C.ar    
  10 C10           -8.5350     2.1621     0.1195 C.ar    
  11 C11           -8.5450     3.5580     0.1323 C.ar    
  12 C12           -7.3389     4.2658     0.1161 C.ar    
  13 C13           -6.1397     3.5898     0.0931 C.ar    
  14 C14           -9.8276     4.2863     0.1622 C.2     
  15 N15           -9.8371     5.6340     0.1745 N.am    
  16 O16          -10.8763     3.6707     0.1758 O.2     
  17 C17          -11.0518     6.3266     0.0899 C.ar    
  18 C18          -11.2188     7.5219     0.7768 C.ar    
  19 C19          -12.0869     5.8208    -0.6854 C.ar    
  20 C20          -13.2839     6.5036    -0.7693 C.ar    
  21 C21          -13.4530     7.6962    -0.0778 C.ar    
  22 C22          -12.4158     8.2046     0.6935 C.ar    
  23 N23          -14.6657     8.3884    -0.1630 N.pl3   
  24 C24          -14.8440     9.6463     0.5664 C.3     
  25 C25          -15.7575     7.8553    -0.9817 C.3     
  26 C26           -7.3075    -0.0014     0.0767 C.ar    
  27 C27           -6.5329    -0.6791    -0.8786 C.ar    
  28 C28           -6.4992    -2.0365    -0.9128 C.ar    
  29 C29           -7.2460    -2.7816     0.0169 C.ar    
  30 C30           -8.0315    -2.1079     0.9865 C.ar    
  31 C31           -8.0490    -0.7051     1.0078 C.ar    
  32 C32          -16.6218     6.9522    -0.1400 C.ar    
  33 C33          -14.4152    10.7979    -0.3059 C.ar    
  34 C34          -17.7017     7.4773     0.5474 C.ar    
  35 C35          -18.4973     6.6563     1.3194 C.ar    
  36 C36          -18.2106     5.2925     1.4061 C.ar    
  37 C37          -17.1193     4.7693     0.7098 C.ar    
  38 C38          -16.3351     5.6008    -0.0627 C.ar    
  39 C39          -15.3362    11.4148    -1.1339 C.ar    
  40 C40          -14.9505    12.4698    -1.9347 C.ar    
  41 C41          -13.6273    12.9148    -1.9083 C.ar    
  42 C42          -12.7031    12.2876    -1.0703 C.ar    
  43 C43          -13.1036    11.2371    -0.2709 C.ar    
  44 C44           -7.2284    -4.1866     0.0021 C.ar    
  45 C45           -7.9623    -4.8801     0.9149 C.ar    
  46 C46           -8.7343    -4.2182     1.8679 C.ar    
  47 C47           -8.7766    -2.8588     1.9133 C.ar    
  48 C48          -13.2198    14.0091    -2.7372 C.1     
  49 N49          -12.8965    14.8772    -3.3947 N.1     
  50 C50          -19.0319     4.4343     2.2059 C.1     
  51 N51          -19.6835     3.7536     2.8404 N.1     
  52 H52            0.8494    -0.4738    -0.0729 H       
  53 H53           -0.8303    -0.4972    -0.0502 H       
  54 H54           -3.5851     2.8921     0.9242 H       
  55 H55           -3.6180     2.9075    -0.8554 H       
  56 H56           -2.5069     0.6595     0.8850 H       
  57 H57           -2.5397     0.6749    -0.8946 H       
  58 H58           -1.2294     3.0146    -0.0083 H       
  59 H59            1.9500     1.5682    -0.0700 H       
  60 H60           -4.8955     0.5524     0.0380 H       
  61 H61           -9.4653     1.6136     0.1316 H       
  62 H62           -7.3482     5.3458     0.1257 H       
  63 H63           -5.2111     4.1411     0.0810 H       
  64 H64           -9.0029     6.1243     0.2420 H       
  65 H65          -10.4123     7.9173     1.3765 H       
  66 H66          -11.9554     4.8935    -1.2231 H       
  67 H67          -14.0887     6.1106    -1.3729 H       
  68 H68          -12.5472     9.1320     1.2312 H       
  69 H69          -15.8938     9.7650     0.8348 H       
  70 H70          -14.2371     9.6305     1.4717 H       
  71 H71          -16.3590     8.6790    -1.3661 H       
  72 H72          -15.3430     7.2881    -1.8152 H       
  73 H73           -5.9566    -0.1135    -1.5959 H       
  74 H74           -5.8991    -2.5434    -1.6540 H       
  75 H75           -8.6428    -0.1791     1.7408 H       
  76 H76          -17.9220     8.5324     0.4797 H       
  77 H77          -19.3397     7.0675     1.8557 H       
  78 H78          -16.8918     3.7154     0.7728 H       
  79 H79          -15.4907     5.1975    -0.6018 H       
  80 H80          -16.3593    11.0694    -1.1536 H       
  81 H81          -15.6704    12.9502    -2.5808 H       
  82 H82          -11.6780    12.6266    -1.0453 H       
  83 H83          -12.3898    10.7511     0.3777 H       
  84 H84           -6.6354    -4.7139    -0.7305 H       
  85 H85           -7.9465    -5.9599     0.9001 H       
  86 H86           -9.3077    -4.7925     2.5806 H       
  87 H87           -9.3789    -2.3590     2.6576 H       
@<TRIPOS>BOND
   1    1    2 1
   2    1    6 2
   3    1    5 1
   4    2   52 1
   5    2   53 1
   6    3    4 1
   7    3    7 1
   8    3   54 1
   9    3   55 1
  10    4    5 1
  11    4   56 1
  12    4   57 1
  13    5   58 1
  14    6   59 1
  15    7    8 1
  16    7   60 1
  17    8    9 ar
  18    8   13 ar
  19    9   10 ar
  20    9   26 1
  21   10   11 ar
  22   10   61 1
  23   11   12 ar
  24   11   14 1
  25   12   13 ar
  26   12   62 1
  27   13   63 1
  28   14   15 am
  29   14   16 2
  30   15   17 1
  31   15   64 1
  32   17   18 ar
  33   17   19 ar
  34   18   22 ar
  35   18   65 1
  36   19   20 ar
  37   19   66 1
  38   20   21 ar
  39   20   67 1
  40   21   22 ar
  41   21   23 1
  42   22   68 1
  43   23   24 1
  44   23   25 1
  45   24   33 1
  46   24   69 1
  47   24   70 1
  48   25   32 1
  49   25   71 1
  50   25   72 1
  51   26   27 ar
  52   26   31 ar
  53   27   28 ar
  54   27   73 1
  55   28   29 ar
  56   28   74 1
  57   29   30 ar
  58   29   44 ar
  59   30   31 ar
  60   30   47 ar
  61   31   75 1
  62   32   34 ar
  63   32   38 ar
  64   33   39 ar
  65   33   43 ar
  66   34   35 ar
  67   34   76 1
  68   35   36 ar
  69   35   77 1
  70   36   37 ar
  71   36   50 1
  72   37   38 ar
  73   37   78 1
  74   38   79 1
  75   39   40 ar
  76   39   80 1
  77   40   41 ar
  78   40   81 1
  79   41   42 ar
  80   41   48 1
  81   42   43 ar
  82   42   82 1
  83   43   83 1
  84   44   45 ar
  85   44   84 1
  86   45   46 ar
  87   45   85 1
  88   46   47 ar
  89   46   86 1
  90   47   87 1
  91   48   49 3
  92   50   51 3

#	End of record

