#	Name: ASD01410936
#	Creating user name:	WinNT
#	Creation time:	15. 06. 2019 19:19

#	Modifying user name:	WinNT
#	Modification time:	15. 06. 2019 19:19

#	Program:	/corina/corina34_cracker 3.40 0067  02.08.2006

@<TRIPOS>MOLECULE
ASD01410936
  63   66    0    0    0
SMALL
NO_CHARGES


@<TRIPOS>ATOM
   1 C1            -0.3370     2.4246    -0.1832 C.ar    
   2 C2            -0.6501     0.1451    -0.8912 C.ar    
   3 C3            -1.9980     0.2277    -0.5735 C.ar    
   4 C4            -2.5183     1.4197    -0.0445 C.ar    
   5 C5            -1.6760     2.5198     0.1426 C.ar    
   6 O6             0.4838     3.4928     0.0040 O.3     
   7 C7             0.7688     4.2727    -1.0688 C.ar    
   8 N8            -2.8305    -0.8719    -0.7688 N.am    
   9 C9            -3.0817    -1.7166     0.2510 C.2     
  10 C10           -2.5733    -1.4111     1.6077 C.ar    
  11 O11           -3.7253    -2.7290     0.0569 O.2     
  12 N12           -1.9334    -0.2690     1.8290 N.ar    
  13 C13           -2.2944    -2.0226     3.9068 C.ar    
  14 C14           -1.6264    -0.8214     4.0930 C.ar    
  15 C15           -1.4663     0.0409     3.0182 C.ar    
  16 Br16          -0.9479    -0.3601     5.7968 Br      
  17 N17            0.1672     4.0427    -2.2244 N.ar    
  18 C18           -3.4330    -1.1103    -2.0827 C.3     
  19 C19           -4.2104     0.1327    -2.5204 C.3     
  20 C20            1.6851     5.3089    -0.9420 C.ar    
  21 C21            1.9666     6.0976    -2.0441 C.ar    
  22 C22            1.3183     5.8202    -3.2395 C.ar    
  23 C23            0.4148     4.7771    -3.2920 C.ar    
  24 C24           -2.7757    -2.3220     2.6423 C.ar    
  25 C25            1.5928     6.6524    -4.4656 C.3     
  26 C26            0.1763     1.2364    -0.6973 C.ar    
  27 F27            1.4881     1.1499    -1.0086 F       
  28 N28            2.7032     6.0626    -5.2175 N.pl3   
  29 O29           -1.6644    -2.6195    -2.7421 O.3     
  30 C30           -2.3318    -1.4084    -3.1023 C.3     
  31 C31           -0.6119    -2.9907    -3.6346 C.3     
  32 N32            2.5712     5.1812    -6.1446 N.2     
  33 N33            3.9423     6.3598    -5.0441 N.2     
  34 C34            4.6670     5.6500    -5.8791 C.2     
  35 C35            3.7622     4.8723    -6.6053 C.2     
  36 C36           -3.9479     1.5164     0.2951 C.2     
  37 O37           -4.6549     0.5298     0.2347 O.2     
  38 O38           -4.4722     2.6991     0.6729 O.3     
  39 C39            2.3633     5.5712     0.3780 C.3     
  40 F40            3.2336     6.6587     0.2471 F       
  41 F41            1.3983     5.8604     1.3488 F       
  42 F42            3.0876     4.4381     0.7634 F       
  43 H43           -0.2473    -0.7705    -1.2981 H       
  44 H44           -2.0714     3.4422     0.5415 H       
  45 H45           -2.4321    -2.7111     4.7275 H       
  46 H46           -0.9509     0.9793     3.1602 H       
  47 H47           -4.1120    -1.9608    -2.0222 H       
  48 H48           -3.5475     0.9980    -2.5105 H       
  49 H49           -4.5974    -0.0170    -3.5283 H       
  50 H50           -5.0400     0.3027    -1.8342 H       
  51 H51            2.6743     6.9104    -1.9752 H       
  52 H52           -0.0924     4.5572    -4.2198 H       
  53 H53           -3.3007    -3.2483     2.4614 H       
  54 H54            0.7023     6.6788    -5.0936 H       
  55 H55            1.8557     7.6666    -4.1650 H       
  56 H56           -2.7736    -1.5177    -4.0927 H       
  57 H57           -1.6147    -0.5876    -3.1129 H       
  58 H58            0.1409    -2.2027    -3.6563 H       
  59 H59           -0.1559    -3.9196    -3.2922 H       
  60 H60           -1.0180    -3.1328    -4.6361 H       
  61 H61            5.7417     5.6670    -5.9846 H       
  62 H62            3.9941     4.1620    -7.3851 H       
  63 H63           -5.4154     2.7132     0.8860 H       
@<TRIPOS>BOND
   1    1   26 ar
   2    1    6 1
   3    1    5 ar
   4    2    3 ar
   5    2   26 ar
   6    2   43 1
   7    3    4 ar
   8    3    8 1
   9    4    5 ar
  10    4   36 1
  11    5   44 1
  12    6    7 1
  13    7   20 ar
  14    7   17 ar
  15    8    9 am
  16    8   18 1
  17    9   11 2
  18    9   10 1
  19   10   12 ar
  20   10   24 ar
  21   12   15 ar
  22   13   14 ar
  23   13   24 ar
  24   13   45 1
  25   14   15 ar
  26   14   16 1
  27   15   46 1
  28   17   23 ar
  29   18   19 1
  30   18   30 1
  31   18   47 1
  32   19   48 1
  33   19   49 1
  34   19   50 1
  35   20   21 ar
  36   20   39 1
  37   21   22 ar
  38   21   51 1
  39   22   23 ar
  40   22   25 1
  41   23   52 1
  42   24   53 1
  43   25   28 1
  44   25   54 1
  45   25   55 1
  46   26   27 1
  47   28   32 1
  48   28   33 1
  49   29   30 1
  50   29   31 1
  51   30   56 1
  52   30   57 1
  53   31   58 1
  54   31   59 1
  55   31   60 1
  56   32   35 2
  57   33   34 2
  58   34   35 1
  59   34   61 1
  60   35   62 1
  61   36   37 2
  62   36   38 1
  63   38   63 1
  64   39   40 1
  65   39   41 1
  66   39   42 1

#	End of record

