#	Name: ASD06020022
#	Creating user name:	WinNT
#	Creation time:	15. 06. 2019 21:04

#	Modifying user name:	WinNT
#	Modification time:	15. 06. 2019 21:04

#	Program:	/corina/corina34_cracker 3.40 0067  02.08.2006

@<TRIPOS>MOLECULE
ASD06020022
  48   52    0    0    0
SMALL
NO_CHARGES


@<TRIPOS>ATOM
   1 C1            -0.2300     0.8676    -0.0053 C.2     
   2 O2             0.9270     1.1809    -0.2074 O.2     
   3 O3            -1.3855    -2.9862    -0.3181 O.3     
   4 C4            -2.3672    -1.9472    -0.3406 C.3     
   5 C5            -1.9205    -0.8106     0.5860 C.3     
   6 N6            -0.5498    -0.4226     0.2171 N.am    
   7 C7             0.4613    -1.4851     0.0976 C.3     
   8 C8            -0.1015    -2.5888    -0.8051 C.3     
   9 C9            -1.2857     1.9029     0.0026 C.ar    
  10 C10           -0.9412     3.2565     0.1067 C.ar    
  11 C11           -1.9634     4.1881     0.1099 C.ar    
  12 C12           -3.2755     3.7225     0.0093 C.ar    
  13 N13           -3.5102     2.4183    -0.0858 N.ar    
  14 N14           -2.5626     1.5524    -0.0945 N.ar    
  15 N15           -4.3324     4.6198     0.0089 N.pl3   
  16 C16           -5.6311     4.1652    -0.2005 C.ar    
  17 C17           -6.6807     5.0836    -0.3088 C.ar    
  18 C18           -7.9844     4.6200    -0.5193 C.ar    
  19 C19           -8.1628     3.2161    -0.6108 C.ar    
  20 C20           -7.0865     2.3944    -0.4934 C.ar    
  21 N21           -5.8655     2.8683    -0.3012 N.ar    
  22 S22           -6.7232     6.8415    -0.2327 S.3     
  23 C23           -8.4638     6.8199    -0.4859 C.2     
  24 N24           -8.8829     5.6021    -0.6035 N.2     
  25 C25           -9.3234     8.0204    -0.5542 C.ar    
  26 C26          -10.6985     7.8880    -0.7596 C.ar    
  27 C27          -11.4954     9.0142    -0.8224 C.ar    
  28 C28          -10.9348    10.2710    -0.6825 C.ar    
  29 C29           -9.5736    10.4098    -0.4793 C.ar    
  30 C30           -8.7652     9.2923    -0.4081 C.ar    
  31 Cl31          -7.0584     9.4684    -0.1447 Cl      
  32 Cl32         -11.4041     6.3118    -0.9360 Cl      
  33 H33           -2.4729    -1.5680    -1.3570 H       
  34 H34           -3.3233    -2.3422     0.0027 H       
  35 H35           -2.5879     0.0431     0.4680 H       
  36 H36           -1.9394    -1.1518     1.6210 H       
  37 H37            1.3711    -1.0781    -0.3437 H       
  38 H38            0.6822    -1.8942     1.0835 H       
  39 H39            0.5725    -3.4455    -0.7961 H       
  40 H40           -0.1989    -2.2120    -1.8233 H       
  41 H41            0.0915     3.5635     0.1825 H       
  42 H42           -1.7528     5.2444     0.1884 H       
  43 H43           -4.1667     5.5644     0.1545 H       
  44 H44           -9.1474     2.8026    -0.7724 H       
  45 H45           -7.2306     1.3264    -0.5638 H       
  46 H46          -12.5589     8.9133    -0.9815 H       
  47 H47          -11.5629    11.1481    -0.7324 H       
  48 H48           -9.1426    11.3942    -0.3712 H       
@<TRIPOS>BOND
   1    1    2 2
   2    1    6 am
   3    1    9 1
   4    3    4 1
   5    3    8 1
   6    4    5 1
   7    4   33 1
   8    4   34 1
   9    5    6 1
  10    5   35 1
  11    5   36 1
  12    6    7 1
  13    7    8 1
  14    7   37 1
  15    7   38 1
  16    8   39 1
  17    8   40 1
  18    9   10 ar
  19    9   14 ar
  20   10   11 ar
  21   10   41 1
  22   11   12 ar
  23   11   42 1
  24   12   13 ar
  25   12   15 1
  26   13   14 ar
  27   15   16 1
  28   15   43 1
  29   16   17 ar
  30   16   21 ar
  31   17   18 ar
  32   17   22 1
  33   18   19 ar
  34   18   24 1
  35   19   20 ar
  36   19   44 1
  37   20   21 ar
  38   20   45 1
  39   22   23 1
  40   23   24 2
  41   23   25 1
  42   25   26 ar
  43   25   30 ar
  44   26   27 ar
  45   26   32 1
  46   27   28 ar
  47   27   46 1
  48   28   29 ar
  49   28   47 1
  50   29   30 ar
  51   29   48 1
  52   30   31 1

#	End of record

