#	Name: ASD00110045
#	Creating user name:	WinNT
#	Creation time:	15. 06. 2019 18:30

#	Modifying user name:	WinNT
#	Modification time:	15. 06. 2019 18:30

#	Program:	/corina/corina34_cracker 3.40 0067  02.08.2006

@<TRIPOS>MOLECULE
ASD00110045
  84   85    0    0    0
SMALL
NO_CHARGES


@<TRIPOS>ATOM
   1 C1             1.8908    -0.2567    -0.4440 C.3     
   2 C2             1.6932    -1.7735    -0.4808 C.3     
   3 C3             0.2002    -2.0956    -0.3915 C.3     
   4 C4             0.0026    -3.6124    -0.4284 C.3     
   5 C5            -1.4904    -3.9346    -0.3390 C.3     
   6 C6            -1.6879    -5.4513    -0.3759 C.3     
   7 C7            -3.1809    -5.7735    -0.2866 C.3     
   8 C8            -3.3785    -7.2902    -0.3234 C.3     
   9 C9            -4.8715    -7.6124    -0.2341 C.3     
  10 C10           -5.0691    -9.1291    -0.2710 C.3     
  11 C11           -6.5621    -9.4513    -0.1816 C.3     
  12 C12           -6.7596   -10.9681    -0.2185 C.3     
  13 H13           -6.1675   -11.4318     0.5704 H       
  14 C14           -6.3126   -11.5094    -1.5793 C.3     
  15 C15           -6.5691   -13.0172    -1.6323 C.3     
  16 N16           -7.9994   -13.2791    -1.4271 N.3     
  17 C17           -8.4411   -12.8104    -0.1074 C.3     
  18 H18           -7.8566   -13.3055     0.6681 H       
  19 C19           -8.2402   -11.2965    -0.0072 C.3     
  20 C20           -9.9006   -13.1364     0.0786 C.2     
  21 O21          -10.5999   -13.3597    -0.8868 O.2     
  22 N22          -10.4287   -13.1799     1.3178 N.am    
  23 C23          -11.8476   -13.4968     1.4987 C.3     
  24 H24          -12.1566   -14.2224     0.7462 H       
  25 C25          -12.6784   -12.2209     1.3483 C.3     
  26 H26          -13.7340   -12.4567     1.4828 H       
  27 C27          -12.4611   -11.6324    -0.0472 C.3     
  28 Cl28         -12.1672   -11.0207     2.5929 Cl      
  29 C29          -12.0648   -14.0853     2.8942 C.3     
  30 H30          -11.8223   -13.3351     3.6468 H       
  31 O31          -13.4308   -14.4800     3.0376 O.3     
  32 C32          -13.8626   -15.4468     2.0779 C.3     
  33 H33          -13.7313   -15.0454     1.0731 H       
  34 S34          -15.6142   -15.8307     2.3520 S.3     
  35 C35          -16.4514   -14.3056     1.8382 C.3     
  36 C36          -13.0301   -16.7225     2.2309 C.3     
  37 H37          -13.3280   -17.4451     1.4711 H       
  38 O38          -13.2439   -17.2794     3.5294 O.3     
  39 C39          -11.5474   -16.3792     2.0575 C.3     
  40 H40          -10.9448   -17.2727     2.2206 H       
  41 O41          -11.3225   -15.8855     0.7355 O.3     
  42 C42          -11.1600   -15.3061     3.0800 C.3     
  43 H43          -11.2844   -15.7017     4.0880 H       
  44 O44           -9.7972   -14.9253     2.8800 O.3     
  45 H45            2.9544    -0.0272    -0.5076 H       
  46 H46            1.3699     0.1981    -1.2865 H       
  47 H47            1.4887     0.1395     0.4885 H       
  48 H48            2.0952    -2.1697    -1.4133 H       
  49 H49            2.2141    -2.2283     0.3617 H       
  50 H50           -0.2018    -1.6994     0.5410 H       
  51 H51           -0.3207    -1.6408    -1.2340 H       
  52 H52            0.4047    -4.0086    -1.3608 H       
  53 H53            0.5236    -4.0672     0.4142 H       
  54 H54           -1.8924    -3.5384     0.5935 H       
  55 H55           -2.0113    -3.4797    -1.1816 H       
  56 H56           -1.2859    -5.8475    -1.3084 H       
  57 H57           -1.1670    -5.9061     0.4666 H       
  58 H58           -3.5830    -5.3773     0.6459 H       
  59 H59           -3.7018    -5.3186    -1.1291 H       
  60 H60           -2.9765    -7.6864    -1.2559 H       
  61 H61           -2.8576    -7.7451     0.5191 H       
  62 H62           -5.2735    -7.2162     0.6984 H       
  63 H63           -5.3924    -7.1576    -1.0766 H       
  64 H64           -4.6670    -9.5253    -1.2034 H       
  65 H65           -4.5482    -9.5840     0.5716 H       
  66 H66           -6.9641    -9.0551     0.7509 H       
  67 H67           -7.0830    -8.9965    -1.0242 H       
  68 H68           -6.8772   -11.0161    -2.3705 H       
  69 H69           -5.2486   -11.3162    -1.7160 H       
  70 H70           -6.2651   -13.4033    -2.6052 H       
  71 H71           -5.9935   -13.5112    -0.8496 H       
  72 H72           -8.5521   -12.8638    -2.1620 H       
  73 H73           -8.5525   -10.9514     0.9784 H       
  74 H74           -8.8360   -10.7998    -0.7730 H       
  75 H75           -9.8694   -13.0013     2.0900 H       
  76 H76          -12.7701   -12.3579    -0.7997 H       
  77 H77          -13.0529   -10.7234    -0.1544 H       
  78 H78          -11.4054   -11.3966    -0.1818 H       
  79 H79          -16.2258   -14.1023     0.7913 H       
  80 H80          -17.5280   -14.4228     1.9618 H       
  81 H81          -16.1033   -13.4753     2.4527 H       
  82 H82          -14.1641   -17.5165     3.7091 H       
  83 H83          -11.5529   -16.5131     0.0368 H       
  84 H84           -9.1669   -15.6514     2.9826 H       
@<TRIPOS>BOND
   1    1    2 1
   2    1   45 1
   3    1   46 1
   4    1   47 1
   5    2    3 1
   6    2   48 1
   7    2   49 1
   8    3    4 1
   9    3   50 1
  10    3   51 1
  11    4    5 1
  12    4   52 1
  13    4   53 1
  14    5    6 1
  15    5   54 1
  16    5   55 1
  17    6    7 1
  18    6   56 1
  19    6   57 1
  20    7    8 1
  21    7   58 1
  22    7   59 1
  23    8    9 1
  24    8   60 1
  25    8   61 1
  26    9   10 1
  27    9   62 1
  28    9   63 1
  29   10   11 1
  30   10   64 1
  31   10   65 1
  32   11   12 1
  33   11   66 1
  34   11   67 1
  35   12   13 1
  36   12   19 1
  37   12   14 1
  38   14   15 1
  39   14   68 1
  40   14   69 1
  41   15   16 1
  42   15   70 1
  43   15   71 1
  44   16   17 1
  45   16   72 1
  46   17   18 1
  47   17   19 1
  48   17   20 1
  49   19   73 1
  50   19   74 1
  51   20   21 2
  52   20   22 am
  53   22   23 1
  54   22   75 1
  55   23   24 1
  56   23   25 1
  57   23   29 1
  58   25   26 1
  59   25   27 1
  60   25   28 1
  61   27   76 1
  62   27   77 1
  63   27   78 1
  64   29   30 1
  65   29   42 1
  66   29   31 1
  67   31   32 1
  68   32   33 1
  69   32   34 1
  70   32   36 1
  71   34   35 1
  72   35   79 1
  73   35   80 1
  74   35   81 1
  75   36   37 1
  76   36   38 1
  77   36   39 1
  78   38   82 1
  79   39   40 1
  80   39   41 1
  81   39   42 1
  82   41   83 1
  83   42   43 1
  84   42   44 1
  85   44   84 1

#	End of record

