#	Name: ASD01882678
#	Creating user name:	WinNT
#	Creation time:	15. 06. 2019 19:45

#	Modifying user name:	WinNT
#	Modification time:	15. 06. 2019 19:45

#	Program:	/corina/corina34_cracker 3.40 0067  02.08.2006

@<TRIPOS>MOLECULE
ASD01882678
  54   58    0    0    0
SMALL
NO_CHARGES


@<TRIPOS>ATOM
   1 C1             0.6258     1.3716    -1.0754 C.2     
   2 C2             0.6019    -0.0315    -1.0024 C.2     
   3 C3             1.1510    -0.6520     0.0867 C.2     
   4 C4             1.7295     0.1255     1.1137 C.2     
   5 C5             1.7414     1.4697     1.0231 C.2     
   6 N6             1.1965     2.0980    -0.0586 N.pl3   
   7 N7             0.4564     3.4382    -1.5741 N.2     
   8 N8             0.1947     2.2436    -1.9740 N.2     
   9 C9             1.0647     3.4073    -0.4177 C.2     
  10 C10           -0.0209    -0.8427    -2.1093 C.3     
  11 F11           -1.3552    -1.1181    -1.7915 F       
  12 F12            0.0339    -0.1191    -3.3053 F       
  13 F13            0.6805    -2.0440    -2.2585 F       
  14 N14            1.1390    -2.0403     0.1817 N.pl3   
  15 C15            2.3919    -2.8101     0.1492 C.3     
  16 C16            2.4096    -3.7620     1.3499 C.3     
  17 N17            1.1834    -4.5709     1.3476 N.3     
  18 C18           -0.0099    -3.7301     1.5114 C.3     
  19 C19           -0.1264    -2.7764     0.3235 C.3     
  20 C20            1.2357    -5.5592     2.3271 C.ar    
  21 C21            0.1604    -6.4353     2.4847 C.ar    
  22 C22            0.2287    -7.4141     3.4645 C.ar    
  23 C23            1.3702    -7.4830     4.2529 C.ar    
  24 C24            2.3945    -6.5834     4.0405 C.ar    
  25 N25            2.3062    -5.6638     3.0970 N.ar    
  26 O26           -0.9380    -6.3301     1.6896 O.3     
  27 C27           -1.9945    -7.2653     1.9156 C.3     
  28 C28            1.5361     4.6002     0.3734 C.3     
  29 C29            2.9697     4.9474    -0.0329 C.3     
  30 C30            3.5911     6.2065     0.5750 C.3     
  31 C31            4.0567     4.8241     1.0367 C.3     
  32 H32            2.1639    -0.3593     1.9755 H       
  33 H33            2.1859     2.0553     1.8142 H       
  34 H34            2.4442    -3.3855    -0.7751 H       
  35 H35            3.2413    -2.1297     0.2088 H       
  36 H36            3.2779    -4.4175     1.2816 H       
  37 H37            2.4619    -3.1834     2.2721 H       
  38 H38           -0.8965    -4.3623     1.5603 H       
  39 H39            0.0761    -3.1518     2.4314 H       
  40 H40           -0.9411    -2.0737     0.4982 H       
  41 H41           -0.3208    -3.3485    -0.5837 H       
  42 H42           -0.5868    -8.1067     3.6115 H       
  43 H43            1.4550    -8.2333     5.0250 H       
  44 H44            3.2831    -6.6345     4.6523 H       
  45 H45           -2.3610    -7.1597     2.9367 H       
  46 H46           -2.8075    -7.0712     1.2160 H       
  47 H47           -1.6210    -8.2785     1.7666 H       
  48 H48            0.8851     5.4507     0.1711 H       
  49 H49            1.5068     4.3652     1.4374 H       
  50 H50            3.2415     4.6968    -1.0583 H       
  51 H51            4.2719     6.7840    -0.0503 H       
  52 H52            2.9785     6.7875     1.2644 H       
  53 H53            3.7505     4.4957     2.0299 H       
  54 H54            5.0439     4.4922     0.7152 H       
@<TRIPOS>BOND
   1    1    2 1
   2    1    6 1
   3    1    8 2
   4    2    3 2
   5    2   10 1
   6    3    4 1
   7    3   14 1
   8    4    5 2
   9    4   32 1
  10    5    6 1
  11    5   33 1
  12    6    9 1
  13    7    8 1
  14    7    9 2
  15    9   28 1
  16   10   11 1
  17   10   12 1
  18   10   13 1
  19   14   15 1
  20   14   19 1
  21   15   16 1
  22   15   34 1
  23   15   35 1
  24   16   17 1
  25   16   36 1
  26   16   37 1
  27   17   18 1
  28   17   20 1
  29   18   19 1
  30   18   38 1
  31   18   39 1
  32   19   40 1
  33   19   41 1
  34   20   21 ar
  35   20   25 ar
  36   21   22 ar
  37   21   26 1
  38   22   23 ar
  39   22   42 1
  40   23   24 ar
  41   23   43 1
  42   24   25 ar
  43   24   44 1
  44   26   27 1
  45   27   45 1
  46   27   46 1
  47   27   47 1
  48   28   29 1
  49   28   48 1
  50   28   49 1
  51   29   30 1
  52   29   31 1
  53   29   50 1
  54   30   31 1
  55   30   51 1
  56   30   52 1
  57   31   53 1
  58   31   54 1

#	End of record

