#	Name: ASD02560129
#	Creating user name:	WinNT
#	Creation time:	15. 06. 2019 20:24

#	Modifying user name:	WinNT
#	Modification time:	15. 06. 2019 20:24

#	Program:	/corina/corina34_cracker 3.40 0067  02.08.2006

@<TRIPOS>MOLECULE
ASD02560129
  57   61    0    0    0
SMALL
NO_CHARGES


@<TRIPOS>ATOM
   1 N1            -0.4354     1.7829     0.3416 N.2     
   2 N2            -0.6190     0.5856     0.1012 N.2     
   3 C3             0.9655     2.1615     0.1156 C.3     
   4 N4             1.7024     0.8734     0.0667 N.3     
   5 C5             0.6239    -0.0661    -0.3318 C.3     
   6 S6             0.8294    -1.6585     0.5124 S.3     
   7 C7             0.7322    -1.2060     2.2664 C.3     
   8 C8             0.8881    -2.4426     3.1135 C.2     
   9 O9             1.0489    -3.5227     2.5859 O.2     
  10 N10            0.8488    -2.3482     4.4574 N.am    
  11 Br11           1.1487     3.1203    -1.5910 Br      
  12 C12            2.7113     0.9115    -0.8934 C.ar    
  13 C13            0.8748    -3.5027     5.2383 C.ar    
  14 C14            1.2711    -3.4309     6.5705 C.ar    
  15 C15            1.2976    -4.5686     7.3445 C.ar    
  16 C16            0.9258    -5.7976     6.7910 C.ar    
  17 C17            0.5284    -5.8660     5.4525 C.ar    
  18 C18            0.4992    -4.7230     4.6856 C.ar    
  19 C19            0.9534    -7.0188     7.6170 C.2     
  20 O20            1.2995    -6.9578     8.7801 O.2     
  21 O21            0.5948    -8.2024     7.0819 O.3     
  22 C22            2.7042     0.0208    -1.9455 C.ar    
  23 C23            3.7470     1.8664    -0.8009 C.ar    
  24 C24            4.7622     1.8864    -1.7883 C.ar    
  25 C25            4.7209     0.9571    -2.8420 C.ar    
  26 C26            3.7077     0.0503    -2.9095 C.ar    
  27 C27            5.7949     0.9677    -3.8992 C.3     
  28 C28            6.6326    -0.3015    -4.0679 C.3     
  29 C29            5.5901     0.0730    -5.1233 C.3     
  30 C30            3.7890     2.7955     0.2502 C.ar    
  31 C31            4.8028     3.7027     0.3078 C.ar    
  32 C32            5.8019     3.7236    -0.6633 C.ar    
  33 C33            5.7935     2.8372    -1.6960 C.ar    
  34 C34            1.6720    -2.1059     7.1660 C.3     
  35 H35            1.3300     2.7764     0.9384 H       
  36 H36            0.6225    -0.2059    -1.4128 H       
  37 H37            1.5279    -0.5001     2.5041 H       
  38 H38           -0.2347    -0.7458     2.4698 H       
  39 H39            0.8023    -1.4769     4.8812 H       
  40 H40            1.6055    -4.5122     8.3782 H       
  41 H41            0.2409    -6.8137     5.0216 H       
  42 H42            0.1923    -4.7751     3.6515 H       
  43 H43            0.6290    -8.9750     7.6625 H       
  44 H44            1.9112    -0.7083    -2.0224 H       
  45 H45            3.6840    -0.6600    -3.7227 H       
  46 H46            6.2942     1.9244    -4.0525 H       
  47 H47            7.6829    -0.1797    -4.3326 H       
  48 H48            6.4069    -1.1441    -3.4143 H       
  49 H49            4.6785    -0.5232    -5.1640 H       
  50 H50            5.9546     0.4411    -6.0823 H       
  51 H51            3.0209     2.7912     1.0094 H       
  52 H52            4.8327     4.4166     1.1177 H       
  53 H53            6.5949     4.4536    -0.5951 H       
  54 H54            6.5746     2.8648    -2.4414 H       
  55 H55            0.7946    -1.6178     7.5903 H       
  56 H56            2.4117    -2.2688     7.9499 H       
  57 H57            2.0998    -1.4728     6.3887 H       
@<TRIPOS>BOND
   1    1    2 2
   2    1    3 1
   3    2    5 1
   4    3    4 1
   5    3   11 1
   6    3   35 1
   7    4    5 1
   8    4   12 1
   9    5    6 1
  10    5   36 1
  11    6    7 1
  12    7    8 1
  13    7   37 1
  14    7   38 1
  15    8    9 2
  16    8   10 am
  17   10   13 1
  18   10   39 1
  19   12   22 ar
  20   12   23 ar
  21   13   14 ar
  22   13   18 ar
  23   14   15 ar
  24   14   34 1
  25   15   16 ar
  26   15   40 1
  27   16   17 ar
  28   16   19 1
  29   17   18 ar
  30   17   41 1
  31   18   42 1
  32   19   20 2
  33   19   21 1
  34   21   43 1
  35   22   26 ar
  36   22   44 1
  37   23   24 ar
  38   23   30 ar
  39   24   25 ar
  40   24   33 ar
  41   25   26 ar
  42   25   27 1
  43   26   45 1
  44   27   28 1
  45   27   29 1
  46   27   46 1
  47   28   29 1
  48   28   47 1
  49   28   48 1
  50   29   49 1
  51   29   50 1
  52   30   31 ar
  53   30   51 1
  54   31   32 ar
  55   31   52 1
  56   32   33 ar
  57   32   53 1
  58   33   54 1
  59   34   55 1
  60   34   56 1
  61   34   57 1

#	End of record

