#	Name: ASD01870398
#	Creating user name:	WinNT
#	Creation time:	15. 06. 2019 19:39

#	Modifying user name:	WinNT
#	Modification time:	15. 06. 2019 19:39

#	Program:	/corina/corina34_cracker 3.40 0067  02.08.2006

@<TRIPOS>MOLECULE
ASD01870398
  40   43    0    0    0
SMALL
NO_CHARGES


@<TRIPOS>ATOM
   1 C1            -0.0167     1.3793     0.0096 C.ar    
   2 C2             0.0021    -0.0041     0.0020 C.ar    
   3 C3             1.2052    -0.6838    -0.0142 C.ar    
   4 C4             2.3963     0.0181    -0.0230 C.ar    
   5 C5             2.3837     1.3986    -0.0148 C.ar    
   6 C6             1.1753     2.0854     0.0020 C.ar    
   7 O7             1.1844     3.4397     0.0103 O.3     
   8 C8             0.0933     4.1246     0.4285 C.ar    
   9 C9            -1.1567     3.5280     0.4570 C.ar    
  10 C10           -1.3379     2.0986     0.0198 C.3     
  11 C11            0.2359     5.4466     0.8339 C.ar    
  12 C12           -0.8638     6.1626     1.2623 C.ar    
  13 C13           -2.1101     5.5649     1.2887 C.ar    
  14 C14           -2.2553     4.2507     0.8869 C.ar    
  15 C15           -1.9299     2.0704    -1.3657 C.2     
  16 O16           -1.3352     1.5201    -2.2682 O.2     
  17 N17           -3.1203     2.6566    -1.6020 N.am    
  18 C18           -3.6664     2.6305    -2.8800 C.2     
  19 S19           -5.1625     3.3312    -3.3201 S.3     
  20 C20           -4.9387     2.7906    -4.9819 C.2     
  21 C21           -3.7750     2.1414    -5.0526 C.2     
  22 N22           -3.1128     2.0762    -3.9127 N.2     
  23 C23           -3.2562     1.5367    -6.3318 C.3     
  24 C24           -5.8946     3.0211    -6.1240 C.3     
  25 H25           -0.9269    -0.5548     0.0092 H       
  26 H26            1.2150    -1.7638    -0.0197 H       
  27 H27            3.3363    -0.5134    -0.0359 H       
  28 H28            3.3146     1.9460    -0.0215 H       
  29 H29           -2.0155     1.5961     0.7100 H       
  30 H30            1.2092     5.9143     0.8139 H       
  31 H31           -0.7505     7.1895     1.5771 H       
  32 H32           -2.9705     6.1252     1.6236 H       
  33 H33           -3.2300     3.7860     0.9086 H       
  34 H34           -3.5959     3.0967    -0.8802 H       
  35 H35           -2.6527     2.2727    -6.8630 H       
  36 H36           -2.6446     0.6647    -6.0996 H       
  37 H37           -4.0959     1.2352    -6.9579 H       
  38 H38           -6.7591     3.5807    -5.7669 H       
  39 H39           -5.3934     3.5881    -6.9084 H       
  40 H40           -6.2225     2.0611    -6.5226 H       
@<TRIPOS>BOND
   1    1    2 ar
   2    1    6 ar
   3    1   10 1
   4    2    3 ar
   5    2   25 1
   6    3    4 ar
   7    3   26 1
   8    4    5 ar
   9    4   27 1
  10    5    6 ar
  11    5   28 1
  12    6    7 1
  13    7    8 1
  14    8   11 ar
  15    8    9 ar
  16    9   10 1
  17    9   14 ar
  18   10   15 1
  19   10   29 1
  20   11   12 ar
  21   11   30 1
  22   12   13 ar
  23   12   31 1
  24   13   14 ar
  25   13   32 1
  26   14   33 1
  27   15   16 2
  28   15   17 am
  29   17   18 1
  30   17   34 1
  31   18   19 1
  32   18   22 2
  33   19   20 1
  34   20   24 1
  35   20   21 2
  36   21   22 1
  37   21   23 1
  38   23   35 1
  39   23   36 1
  40   23   37 1
  41   24   38 1
  42   24   39 1
  43   24   40 1

#	End of record

