#	Name: ASD01815961
#	Creating user name:	WinNT
#	Creation time:	15. 06. 2019 19:34

#	Modifying user name:	WinNT
#	Modification time:	15. 06. 2019 19:34

#	Program:	/corina/corina34_cracker 3.40 0067  02.08.2006

@<TRIPOS>MOLECULE
ASD01815961
  54   59    0    0    0
SMALL
NO_CHARGES


@<TRIPOS>ATOM
   1 C1             1.0944     0.6454     0.8415 C.ar    
   2 C2             1.0681    -0.7298     0.6772 C.ar    
   3 C3             2.2351    -1.4349     0.4567 C.ar    
   4 C4             3.4543    -0.7651     0.3971 C.ar    
   5 C5             3.4779     0.6291     0.5635 C.ar    
   6 C6             2.2940     1.3293     0.7858 C.ar    
   7 N7             4.6281    -1.4666     0.1767 N.pl3   
   8 C8             5.8313    -0.8752     0.1099 C.2     
   9 C9             5.9779     0.4819     0.2576 C.2     
  10 C10            4.7801     1.3189     0.4966 C.2     
  11 C11            7.0986     1.4167     0.2423 C.2     
  12 N12            6.5698     2.6417     0.4516 N.am    
  13 N13            5.1834     2.5527     0.6000 N.2     
  14 C14            7.3062     3.8316     0.5109 C.ar    
  15 O15            8.2767     1.1459     0.0748 O.2     
  16 C16            4.5531    -2.9201     0.0096 C.3     
  17 C17            4.1949    -3.2437    -1.4180 C.ar    
  18 C18            5.0332    -2.8463    -2.4470 C.ar    
  19 C19            4.7091    -3.1412    -3.7579 C.ar    
  20 C20            3.5361    -3.8398    -4.0423 C.ar    
  21 C21            2.6968    -4.2367    -3.0007 C.ar    
  22 C22            3.0331    -3.9414    -1.6956 C.ar    
  23 F23            2.3186     2.6705     0.9457 F       
  24 F24            2.1937    -2.7761     0.2992 F       
  25 C25            7.6244     4.5121    -0.6568 C.ar    
  26 C26            8.3508     5.6853    -0.5952 C.ar    
  27 C27            8.7618     6.1836     0.6276 C.ar    
  28 C28            8.4475     5.5099     1.7935 C.ar    
  29 C29            7.7156     4.3375     1.7400 C.ar    
  30 F30            7.4084     3.6791     2.8790 F       
  31 F31            6.1687    -2.1693    -2.1687 F       
  32 C32            3.1827    -4.1585    -5.4435 C.2     
  33 N33            3.0500    -4.1299    -7.6714 N.2     
  34 C34            2.2888    -5.1096    -7.2539 C.2     
  35 C35            2.3465    -5.1551    -5.8608 C.2     
  36 N36            3.6263    -3.5084    -6.5562 N.pl3   
  37 C37            4.5414    -2.3646    -6.5814 C.3     
  38 H38            0.1742     1.1853     1.0092 H       
  39 H39            0.1259    -1.2558     0.7222 H       
  40 H40            6.7070    -1.4828    -0.0643 H       
  41 H41            5.5188    -3.3639     0.2514 H       
  42 H42            3.7907    -3.3236     0.6759 H       
  43 H43            5.3625    -2.8311    -4.5600 H       
  44 H44            1.7873    -4.7779    -3.2155 H       
  45 H45            2.3837    -4.2489    -0.8893 H       
  46 H46            7.3046     4.1241    -1.6126 H       
  47 H47            8.5985     6.2142    -1.5037 H       
  48 H48            9.3299     7.1010     0.6721 H       
  49 H49            8.7703     5.9015     2.7468 H       
  50 H50            1.7128    -5.7721    -7.8828 H       
  51 H51            1.8234    -5.8542    -5.2252 H       
  52 H52            5.5704    -2.7215    -6.5388 H       
  53 H53            4.3908    -1.7990    -7.5009 H       
  54 H54            4.3438    -1.7222    -5.7232 H       
@<TRIPOS>BOND
   1    1    2 ar
   2    1    6 ar
   3    1   38 1
   4    2    3 ar
   5    2   39 1
   6    3    4 ar
   7    3   24 1
   8    4    5 ar
   9    4    7 1
  10    5    6 ar
  11    5   10 1
  12    6   23 1
  13    7    8 1
  14    7   16 1
  15    8    9 2
  16    8   40 1
  17    9   10 1
  18    9   11 1
  19   10   13 2
  20   11   12 am
  21   11   15 2
  22   12   13 1
  23   12   14 1
  24   14   25 ar
  25   14   29 ar
  26   16   17 1
  27   16   41 1
  28   16   42 1
  29   17   18 ar
  30   17   22 ar
  31   18   19 ar
  32   18   31 1
  33   19   20 ar
  34   19   43 1
  35   20   21 ar
  36   20   32 1
  37   21   22 ar
  38   21   44 1
  39   22   45 1
  40   25   26 ar
  41   25   46 1
  42   26   27 ar
  43   26   47 1
  44   27   28 ar
  45   27   48 1
  46   28   29 ar
  47   28   49 1
  48   29   30 1
  49   32   36 1
  50   32   35 2
  51   33   34 2
  52   33   36 1
  53   34   35 1
  54   34   50 1
  55   35   51 1
  56   36   37 1
  57   37   52 1
  58   37   53 1
  59   37   54 1

#	End of record

