#	Name: ASD01914645
#	Creating user name:	WinNT
#	Creation time:	15. 06. 2019 20:03

#	Modifying user name:	WinNT
#	Modification time:	15. 06. 2019 20:03

#	Program:	/corina/corina34_cracker 3.40 0067  02.08.2006

@<TRIPOS>MOLECULE
ASD01914645
  56   60    0    0    0
SMALL
NO_CHARGES


@<TRIPOS>ATOM
   1 C1            -0.0168     1.3875     0.0097 C.ar    
   2 C2             0.0021    -0.0041     0.0020 C.ar    
   3 C3             1.2223    -0.6641    -0.0132 C.ar    
   4 C4             2.3823     0.0903    -0.0203 C.ar    
   5 C5             2.2919     1.4797    -0.0120 C.ar    
   6 N6             1.1169     2.0795     0.0026 N.ar    
   7 C7            -1.3137     2.1037     0.0197 C.2     
   8 O8            -2.3543     1.4762     0.0212 O.2     
   9 N9            -1.3392     3.4512     0.0271 N.am    
  10 C10           -2.6216     4.1595     0.0371 C.3     
  11 C11           -2.3706     5.6687     0.0441 C.3     
  12 C12           -3.7099     6.4084     0.0544 C.3     
  13 C13           -4.4991     6.0168     1.3053 C.3     
  14 C14           -4.7501     4.5076     1.2983 C.3     
  15 C15           -5.5511     4.1296     0.0507 C.3     
  16 C16           -4.7619     4.5211    -1.2001 C.3     
  17 C17           -3.4226     3.7815    -1.2105 C.3     
  18 C18           -4.5109     6.0304    -1.1931 C.3     
  19 C19           -3.4108     3.7679     1.2879 C.3     
  20 N20           -3.4696     7.8535     0.0611 N.am    
  21 C21           -4.5104     8.7097     0.0707 C.2     
  22 O22           -5.6481     8.2830     0.0738 O.2     
  23 C23           -4.2673    10.1713     0.0775 C.ar    
  24 C24           -5.3474    11.0511     0.0874 C.ar    
  25 C25           -5.1043    12.4155     0.0941 C.ar    
  26 C26           -3.7887    12.8527     0.0907 C.ar    
  27 C27           -2.7634    11.9208     0.0808 C.ar    
  28 N28           -3.0225    10.6314     0.0797 N.ar    
  29 O29            3.4252     2.2254    -0.0188 O.3     
  30 C30            3.2674     3.6457    -0.0097 C.3     
  31 H31           -0.9218    -0.5633     0.0082 H       
  32 H32            1.2659    -1.7432    -0.0191 H       
  33 H33            3.3478    -0.3936    -0.0318 H       
  34 H34           -0.5085     3.9521     0.0259 H       
  35 H35           -1.7999     5.9380     0.9328 H       
  36 H36           -1.8084     5.9477    -0.8471 H       
  37 H37           -3.9284     6.2861     2.1941 H       
  38 H38           -5.4532     6.5438     1.3127 H       
  39 H39           -5.3124     4.2286     2.1894 H       
  40 H40           -5.7299     3.0543     0.0457 H       
  41 H41           -6.5053     4.6565     0.0581 H       
  42 H42           -5.3326     4.2518    -2.0889 H       
  43 H43           -2.8604     4.0604    -2.1016 H       
  44 H44           -3.6014     2.7062    -1.2155 H       
  45 H45           -5.4651     6.5574    -1.1857 H       
  46 H46           -3.9487     6.3094    -2.0843 H       
  47 H47           -3.5896     2.6927     1.2829 H       
  48 H48           -2.8402     4.0372     2.1767 H       
  49 H49           -2.5614     8.1942     0.0587 H       
  50 H50           -6.3599    10.6752     0.0894 H       
  51 H51           -5.9210    13.1220     0.1015 H       
  52 H52           -3.5653    13.9093     0.0954 H       
  53 H53           -1.7373    12.2579     0.0781 H       
  54 H54            2.7251     3.9452     0.8872 H       
  55 H55            4.2486     4.1203    -0.0165 H       
  56 H56            2.7081     3.9548    -0.8927 H       
@<TRIPOS>BOND
   1    1    2 ar
   2    1    6 ar
   3    1    7 1
   4    2    3 ar
   5    2   31 1
   6    3    4 ar
   7    3   32 1
   8    4    5 ar
   9    4   33 1
  10    5    6 ar
  11    5   29 1
  12    7    8 2
  13    7    9 am
  14    9   10 1
  15    9   34 1
  16   10   11 1
  17   10   17 1
  18   10   19 1
  19   11   12 1
  20   11   35 1
  21   11   36 1
  22   12   13 1
  23   12   18 1
  24   12   20 1
  25   13   14 1
  26   13   37 1
  27   13   38 1
  28   14   15 1
  29   14   19 1
  30   14   39 1
  31   15   16 1
  32   15   40 1
  33   15   41 1
  34   16   17 1
  35   16   18 1
  36   16   42 1
  37   17   43 1
  38   17   44 1
  39   18   45 1
  40   18   46 1
  41   19   47 1
  42   19   48 1
  43   20   21 am
  44   20   49 1
  45   21   22 2
  46   21   23 1
  47   23   24 ar
  48   23   28 ar
  49   24   25 ar
  50   24   50 1
  51   25   26 ar
  52   25   51 1
  53   26   27 ar
  54   26   52 1
  55   27   28 ar
  56   27   53 1
  57   29   30 1
  58   30   54 1
  59   30   55 1
  60   30   56 1

#	End of record

