#	Name: ASD04590505
#	Creating user name:	WinNT
#	Creation time:	15. 06. 2019 20:50

#	Modifying user name:	WinNT
#	Modification time:	15. 06. 2019 20:50

#	Program:	/corina/corina34_cracker 3.40 0067  02.08.2006

@<TRIPOS>MOLECULE
ASD04590505
  54   58    0    0    0
SMALL
NO_CHARGES


@<TRIPOS>ATOM
   1 C1            -0.0167     1.3832     0.0096 C.ar    
   2 C2             0.0021    -0.0041     0.0020 C.ar    
   3 C3             2.4020     0.0223    -0.0204 C.ar    
   4 C4             2.3769     1.4283    -0.0130 C.ar    
   5 C5             1.1624     2.0986     0.0022 C.ar    
   6 N6             3.7040    -0.3552    -0.0357 N.2     
   7 C7             4.4709     0.7083    -0.0383 C.2     
   8 N8             3.6969     1.8375    -0.0246 N.pl3   
   9 C9             5.9482     0.6906    -0.0540 C.2     
  10 C10            6.7656    -0.4631    -0.0693 C.2     
  11 C11            8.0578    -0.0540    -0.0806 C.2     
  12 N12            8.0646     1.3050    -0.0729 N.pl3   
  13 N13            6.7360     1.7480    -0.0621 N.2     
  14 N14            6.3186    -1.7945    -0.0714 N.am    
  15 C15            7.2106    -2.8048    -0.0868 C.2     
  16 O16            8.4027    -2.5635    -0.0987 O.2     
  17 C17            1.1969    -0.6870    -0.0126 C.ar    
  18 C18            6.7415    -4.2021    -0.0890 C.2     
  19 C19            6.4809    -5.0196     0.9836 C.2     
  20 C20           -1.2962    -0.7693     0.0104 C.3     
  21 N21           -1.7313    -1.0105    -1.3718 N.3     
  22 C22           -2.8598    -1.9518    -1.4122 C.3     
  23 C23           -0.6168    -1.4976    -2.1976 C.3     
  24 C24           -1.0982    -1.6784    -3.6396 C.3     
  25 O25           -2.2148    -2.5718    -3.6557 O.3     
  26 C26           -3.3187    -2.1280    -2.8622 C.3     
  27 O27            6.0820    -6.1885     0.4768 O.3     
  28 N28            6.0624    -6.2006    -0.7296 N.2     
  29 C29            6.4307    -5.0632    -1.2405 C.2     
  30 C30            6.5294    -4.7066    -2.7014 C.3     
  31 C31            6.6184    -4.6673     2.4424 C.3     
  32 H32           -0.9614     1.9066     0.0170 H       
  33 H33            1.1403     3.1784     0.0079 H       
  34 H34            4.0155     2.7537    -0.0237 H       
  35 H35            8.9274    -0.6942    -0.0932 H       
  36 H36            8.8529     1.8702    -0.0781 H       
  37 H37            5.3680    -1.9870    -0.0619 H       
  38 H38            1.2037    -1.7669    -0.0178 H       
  39 H39           -1.1524    -1.7232     0.5177 H       
  40 H40           -2.0561    -0.1898     0.5346 H       
  41 H41           -2.5450    -2.9149    -1.0105 H       
  42 H42           -3.6829    -1.5591    -0.8152 H       
  43 H43            0.1975    -0.7734    -2.1738 H       
  44 H44           -0.2661    -2.4535    -1.8084 H       
  45 H45           -1.3986    -0.7129    -4.0468 H       
  46 H46           -0.2912    -2.0935    -4.2434 H       
  47 H47           -4.1177    -2.8683    -2.9036 H       
  48 H48           -3.6838    -1.1756    -3.2467 H       
  49 H49            5.5771    -4.2993    -3.0411 H       
  50 H50            7.3135    -3.9626    -2.8416 H       
  51 H51            6.7688    -5.6000    -3.2781 H       
  52 H52            5.6775    -4.2551     2.8069 H       
  53 H53            6.8669    -5.5636     3.0107 H       
  54 H54            7.4104    -3.9284     2.5646 H       
@<TRIPOS>BOND
   1    1    2 ar
   2    1    5 ar
   3    1   32 1
   4    2   17 ar
   5    2   20 1
   6    3    4 ar
   7    3    6 1
   8    3   17 ar
   9    4    5 ar
  10    4    8 1
  11    5   33 1
  12    6    7 2
  13    7    8 1
  14    7    9 1
  15    8   34 1
  16    9   10 1
  17    9   13 2
  18   10   11 2
  19   10   14 1
  20   11   12 1
  21   11   35 1
  22   12   13 1
  23   12   36 1
  24   14   15 am
  25   14   37 1
  26   15   16 2
  27   15   18 1
  28   17   38 1
  29   18   19 2
  30   18   29 1
  31   19   27 1
  32   19   31 1
  33   20   21 1
  34   20   39 1
  35   20   40 1
  36   21   22 1
  37   21   23 1
  38   22   26 1
  39   22   41 1
  40   22   42 1
  41   23   24 1
  42   23   43 1
  43   23   44 1
  44   24   25 1
  45   24   45 1
  46   24   46 1
  47   25   26 1
  48   26   47 1
  49   26   48 1
  50   27   28 1
  51   28   29 2
  52   29   30 1
  53   30   49 1
  54   30   50 1
  55   30   51 1
  56   31   52 1
  57   31   53 1
  58   31   54 1

#	End of record

