#	Name: ASD01910073
#	Creating user name:	WinNT
#	Creation time:	15. 06. 2019 19:55

#	Modifying user name:	WinNT
#	Modification time:	15. 06. 2019 19:55

#	Program:	/corina/corina34_cracker 3.40 0067  02.08.2006

@<TRIPOS>MOLECULE
ASD01910073
  39   42    0    0    0
SMALL
NO_CHARGES


@<TRIPOS>ATOM
   1 C1             0.0736     1.4069    -0.3324 C.2     
   2 N2             0.1547     0.0574    -0.5824 N.pl3   
   3 C3            -0.8300    -0.5757    -1.2901 C.2     
   4 C4            -1.8936     0.1122    -1.7528 C.2     
   5 C5            -2.0048     1.4930    -1.5132 C.2     
   6 C6            -1.0371     2.1360    -0.8070 C.2     
   7 N7             1.1390     1.7719     0.3630 N.2     
   8 C8             1.9188     0.6982     0.5770 C.2     
   9 C9             1.3141    -0.3931    -0.0122 C.2     
  10 C10            3.2034     0.6883     1.3158 C.ar    
  11 C11            4.0630     1.7837     1.2400 C.ar    
  12 C12            5.2575     1.7689     1.9306 C.ar    
  13 C13            5.6032     0.6701     2.6967 C.ar    
  14 C14            4.7545    -0.4196     2.7759 C.ar    
  15 C15            3.5547    -0.4140     2.0944 C.ar    
  16 N16            1.7926    -1.7029    -0.0246 N.am    
  17 C17            1.1326    -2.6678     0.6461 C.2     
  18 C18            1.5757    -4.0740     0.5439 C.ar    
  19 C19            0.8944    -5.0760     1.2372 C.ar    
  20 C20            1.3129    -6.3866     1.1371 C.ar    
  21 C21            2.4057    -6.7091     0.3520 C.ar    
  22 C22            3.0858    -5.7208    -0.3374 C.ar    
  23 C23            2.6740    -4.4071    -0.2510 C.ar    
  24 O24            0.1726    -2.3814     1.3352 O.2     
  25 H25           -0.7547    -1.6361    -1.4804 H       
  26 H26           -2.6636    -0.4002    -2.3105 H       
  27 H27           -2.8580     2.0405    -1.8857 H       
  28 H28           -1.1142     3.1965    -0.6177 H       
  29 H29            3.7945     2.6417     0.6416 H       
  30 H30            5.9241     2.6167     1.8726 H       
  31 H31            6.5395     0.6628     3.2350 H       
  32 H32            5.0298    -1.2747     3.3753 H       
  33 H33            2.8927    -1.2651     2.1572 H       
  34 H34            2.6005    -1.9194    -0.5159 H       
  35 H35            0.0417    -4.8255     1.8509 H       
  36 H36            0.7867    -7.1627     1.6729 H       
  37 H37            2.7295    -7.7367     0.2773 H       
  38 H38            3.9384    -5.9792    -0.9479 H       
  39 H39            3.2057    -3.6366    -0.7896 H       
@<TRIPOS>BOND
   1    1    2 1
   2    1    7 2
   3    1    6 1
   4    2    3 1
   5    2    9 1
   6    3    4 2
   7    3   25 1
   8    4    5 1
   9    4   26 1
  10    5    6 2
  11    5   27 1
  12    6   28 1
  13    7    8 1
  14    8    9 2
  15    8   10 1
  16    9   16 1
  17   10   11 ar
  18   10   15 ar
  19   11   12 ar
  20   11   29 1
  21   12   13 ar
  22   12   30 1
  23   13   14 ar
  24   13   31 1
  25   14   15 ar
  26   14   32 1
  27   15   33 1
  28   16   17 am
  29   16   34 1
  30   17   18 1
  31   17   24 2
  32   18   19 ar
  33   18   23 ar
  34   19   20 ar
  35   19   35 1
  36   20   21 ar
  37   20   36 1
  38   21   22 ar
  39   21   37 1
  40   22   23 ar
  41   22   38 1
  42   23   39 1

#	End of record

