#	Name: ASD01148334
#	Creating user name:	WinNT
#	Creation time:	15. 06. 2019 19:02

#	Modifying user name:	WinNT
#	Modification time:	15. 06. 2019 19:02

#	Program:	/corina/corina34_cracker 3.40 0067  02.08.2006

@<TRIPOS>MOLECULE
ASD01148334
  46   48    0    0    0
SMALL
NO_CHARGES


@<TRIPOS>ATOM
   1 C1            -0.4097     1.8314    -0.0440 C.ar    
   2 C2            -0.4708     0.4517     0.0161 C.ar    
   3 C3             0.6938    -0.2889     0.0953 C.ar    
   4 C4             1.9194     0.3503     0.1139 C.ar    
   5 C5             1.9805     1.7299     0.0528 C.ar    
   6 C6             0.8158     2.4705    -0.0249 C.ar    
   7 C7             3.3165     2.4267     0.0736 C.3     
   8 O8             4.3313     1.6159    -0.5529 O.3     
   9 C9             3.3038     3.6762    -0.8389 C.3     
  10 C10            3.8457     3.1341    -2.1479 C.2     
  11 N11            4.3969     1.9902    -1.9148 N.2     
  12 C12            3.7580     3.8000    -3.4623 C.ar    
  13 C13            4.3021     3.1867    -4.5940 C.ar    
  14 C14            3.1260     5.0408    -3.5759 C.ar    
  15 C15            3.0442     5.6618    -4.8017 C.ar    
  16 C16            3.5932     5.0513    -5.9322 C.ar    
  17 C17            4.2203     3.8075    -5.8195 C.ar    
  18 C18            3.5054     5.7177    -7.2475 C.2     
  19 O19            4.0776     5.2428    -8.2086 O.2     
  20 N20            2.7908     6.8525    -7.3817 N.am    
  21 C21            4.8129     3.1492    -7.0387 C.3     
  22 C22            3.7162     2.7959     1.5036 C.3     
  23 F23            3.7866     1.6359     2.2824 F       
  24 F24            4.9655     3.4255     1.4908 F       
  25 F25            2.7621     3.6640     2.0451 F       
  26 C26            2.7107     7.4606    -8.5818 C.2     
  27 O27            1.9971     8.5939    -8.7158 O.3     
  28 C28            1.9548     9.1939   -10.0373 C.3     
  29 O29            3.2827     6.9858    -9.5425 O.2     
  30 H30           -1.3194     2.4097    -0.1104 H       
  31 H31           -1.4283    -0.0476     0.0016 H       
  32 H32            0.6461    -1.3667     0.1430 H       
  33 H33            2.8292    -0.2283     0.1765 H       
  34 H34            0.8636     3.5484    -0.0729 H       
  35 H35            2.2885     4.0519    -0.9665 H       
  36 H36            3.9576     4.4525    -0.4413 H       
  37 H37            4.7870     2.2256    -4.5068 H       
  38 H38            2.7014     5.5125    -2.7021 H       
  39 H39            2.5554     6.6208    -4.8897 H       
  40 H40            2.3341     7.2316    -6.6145 H       
  41 H41            5.8101     3.5504    -7.2197 H       
  42 H42            4.8782     2.0735    -6.8752 H       
  43 H43            4.1791     3.3475    -7.9030 H       
  44 H44            1.3479    10.0988   -10.0062 H       
  45 H45            2.9668     9.4459   -10.3544 H       
  46 H46            1.5181     8.4876   -10.7433 H       
@<TRIPOS>BOND
   1    1    2 ar
   2    1    6 ar
   3    1   30 1
   4    2    3 ar
   5    2   31 1
   6    3    4 ar
   7    3   32 1
   8    4    5 ar
   9    4   33 1
  10    5    6 ar
  11    5    7 1
  12    6   34 1
  13    7    8 1
  14    7    9 1
  15    7   22 1
  16    8   11 1
  17    9   10 1
  18    9   35 1
  19    9   36 1
  20   10   11 2
  21   10   12 1
  22   12   13 ar
  23   12   14 ar
  24   13   17 ar
  25   13   37 1
  26   14   15 ar
  27   14   38 1
  28   15   16 ar
  29   15   39 1
  30   16   17 ar
  31   16   18 1
  32   17   21 1
  33   18   19 2
  34   18   20 am
  35   20   26 am
  36   20   40 1
  37   21   41 1
  38   21   42 1
  39   21   43 1
  40   22   23 1
  41   22   24 1
  42   22   25 1
  43   26   27 1
  44   26   29 2
  45   27   28 1
  46   28   44 1
  47   28   45 1
  48   28   46 1

#	End of record

