#	Name: ASD08070013
#	Creating user name:	WinNT
#	Creation time:	15. 06. 2019 21:14

#	Modifying user name:	WinNT
#	Modification time:	15. 06. 2019 21:14

#	Program:	/corina/corina34_cracker 3.40 0067  02.08.2006

@<TRIPOS>MOLECULE
ASD08070013
  44   45    0    0    0
SMALL
NO_CHARGES


@<TRIPOS>ATOM
   1 C1            -0.0168     1.3882     0.0097 C.ar    
   2 C2             0.0021    -0.0041     0.0020 C.ar    
   3 C3            -1.1728    -0.7233     0.0094 C.ar    
   4 C4            -2.3946    -0.0611     0.0241 C.ar    
   5 C5            -2.4165     1.3459     0.0319 C.ar    
   6 C6            -1.2196     2.0662     0.0305 C.ar    
   7 O7            -3.6735    -0.4880     0.0336 O.3     
   8 C8            -4.5283     0.5558     0.0470 C.2     
   9 C9            -3.8301     1.7207     0.0469 C.2     
  10 C10           -5.9941     0.4484     0.0603 C.2     
  11 N11           -6.5809    -0.7649     0.0601 N.am    
  12 O12           -6.6777     1.4547     0.0715 O.2     
  13 O13            1.1525     2.0821     0.0022 O.3     
  14 C14           -8.4608    -2.2102    -0.5386 C.3     
  15 C15           -8.0419    -0.8719     0.0734 C.3     
  16 C16           -8.5462    -0.7906     1.5156 C.3     
  17 C17           -8.4850    -3.5791    -2.6286 C.3     
  18 C18           -8.2366     0.5946     2.0868 C.3     
  19 C19           -8.7409     0.6760     3.5290 C.3     
  20 C20           -8.0661    -2.2409    -2.0165 C.3     
  21 C21            2.3601     1.3183    -0.0134 C.3     
  22 H22            0.9477    -0.5256    -0.0102 H       
  23 H23           -1.1445    -1.8029     0.0033 H       
  24 H24           -1.2349     3.1460     0.0365 H       
  25 H25           -4.2365     2.7213     0.0567 H       
  26 H26           -6.0359    -1.5672     0.0512 H       
  27 H27           -7.9607    -3.0230    -0.0120 H       
  28 H28           -9.5406    -2.3289    -0.4484 H       
  29 H29           -8.4713    -0.0562    -0.5082 H       
  30 H30           -9.6230    -0.9589     1.5341 H       
  31 H31           -8.0492    -1.5512     2.1177 H       
  32 H32           -7.9849    -4.3919    -2.1019 H       
  33 H33           -9.5648    -3.6978    -2.5383 H       
  34 H34           -8.2038    -3.6010    -3.6814 H       
  35 H35           -7.1599     0.7629     2.0683 H       
  36 H36           -8.7336     1.3553     1.4847 H       
  37 H37           -8.5204     1.6628     3.9359 H       
  38 H38           -9.8177     0.5077     3.5475 H       
  39 H39           -8.2439    -0.0847     4.1311 H       
  40 H40           -8.5663    -1.4281    -2.5431 H       
  41 H41           -6.9864    -2.1222    -2.1068 H       
  42 H42            2.4010     0.6850     0.8728 H       
  43 H43            2.3840     0.6946    -0.9070 H       
  44 H44            3.2165     1.9926    -0.0180 H       
@<TRIPOS>BOND
   1    1    2 ar
   2    1   13 1
   3    1    6 ar
   4    2    3 ar
   5    2   22 1
   6    3    4 ar
   7    3   23 1
   8    4    5 ar
   9    4    7 1
  10    5    6 ar
  11    5    9 1
  12    6   24 1
  13    7    8 1
  14    8    9 2
  15    8   10 1
  16    9   25 1
  17   10   11 am
  18   10   12 2
  19   11   15 1
  20   11   26 1
  21   13   21 1
  22   14   15 1
  23   14   20 1
  24   14   27 1
  25   14   28 1
  26   15   16 1
  27   15   29 1
  28   16   18 1
  29   16   30 1
  30   16   31 1
  31   17   20 1
  32   17   32 1
  33   17   33 1
  34   17   34 1
  35   18   19 1
  36   18   35 1
  37   18   36 1
  38   19   37 1
  39   19   38 1
  40   19   39 1
  41   20   40 1
  42   20   41 1
  43   21   42 1
  44   21   43 1
  45   21   44 1

#	End of record

