#	Name: ASD01948182
#	Creating user name:	WinNT
#	Creation time:	15. 06. 2019 20:13

#	Modifying user name:	WinNT
#	Modification time:	15. 06. 2019 20:13

#	Program:	/corina/corina34_cracker 3.40 0067  02.08.2006

@<TRIPOS>MOLECULE
ASD01948182
  49   51    0    0    0
SMALL
NO_CHARGES


@<TRIPOS>ATOM
   1 C1            -4.2860     0.7496    -3.1711 C.ar    
   2 C2            -3.4062     0.1862    -2.2659 C.ar    
   3 C3            -2.2342     0.8432    -1.9406 C.ar    
   4 C4            -1.9419     2.0634    -2.5208 C.ar    
   5 C5            -2.8213     2.6264    -3.4267 C.ar    
   6 C6            -3.9939     1.9700    -3.7510 C.ar    
   7 C7            -3.7248    -1.1440    -1.6334 C.3     
   8 O8            -3.1925    -2.1954    -2.4415 O.3     
   9 C9            -3.5635    -3.5058    -2.0087 C.3     
  10 C10           -4.3745    -4.1953    -3.1077 C.3     
  11 C11           -2.3030    -4.3223    -1.7166 C.3     
  12 C12           -1.6053    -3.7576    -0.4776 C.3     
  13 S13           -2.4958    -3.9728     1.0881 S.o2    
  14 O14           -3.6008    -3.0823     1.1597 O.2     
  15 O15           -2.6464    -5.3531     1.3904 O.2     
  16 Cl16          -1.2152    -3.2918     2.4940 Cl      
  17 C17           -0.0772    -3.8229    -0.4360 C.3     
  18 C18           -0.7808    -2.4806    -0.6516 C.3     
  19 O19           -3.5472    -4.3963    -4.2553 O.3     
  20 C20           -4.2118    -5.0372    -5.3460 C.3     
  21 C21           -3.2508    -5.1976    -6.4956 C.ar    
  22 C22           -2.4787    -6.3397    -6.5969 C.ar    
  23 C23           -1.5971    -6.4868    -7.6514 C.ar    
  24 C24           -1.4879    -5.4919    -8.6049 C.ar    
  25 C25           -2.2606    -4.3502    -8.5042 C.ar    
  26 C26           -3.1454    -4.2050    -7.4520 C.ar    
  27 H27           -5.1995     0.2342    -3.4287 H       
  28 H28           -1.5472     0.4034    -1.2329 H       
  29 H29           -1.0267     2.5770    -2.2661 H       
  30 H30           -2.5933     3.5800    -3.8795 H       
  31 H31           -4.6808     2.4097    -4.4590 H       
  32 H32           -3.2804    -1.1893    -0.6392 H       
  33 H33           -4.8059    -1.2587    -1.5537 H       
  34 H34           -4.1667    -3.4324    -1.1038 H       
  35 H35           -4.7327    -5.1587    -2.7448 H       
  36 H36           -5.2252    -3.5698    -3.3782 H       
  37 H37           -2.5771    -5.3620    -1.5371 H       
  38 H38           -1.6281    -4.2668    -2.5707 H       
  39 H39            0.3930    -3.9947     0.5322 H       
  40 H40            0.4310    -4.2681    -1.2913 H       
  41 H41           -0.7351    -2.0429    -1.6488 H       
  42 H42           -0.7731    -1.7699     0.1748 H       
  43 H43           -4.5666    -6.0180    -5.0295 H       
  44 H44           -5.0592    -4.4292    -5.6629 H       
  45 H45           -2.5640    -7.1170    -5.8520 H       
  46 H46           -0.9934    -7.3789    -7.7302 H       
  47 H47           -0.7986    -5.6065    -9.4284 H       
  48 H48           -2.1750    -3.5727    -9.2489 H       
  49 H49           -3.7491    -3.3130    -7.3733 H       
@<TRIPOS>BOND
   1    1    2 ar
   2    1    6 ar
   3    1   27 1
   4    2    3 ar
   5    2    7 1
   6    3    4 ar
   7    3   28 1
   8    4    5 ar
   9    4   29 1
  10    5    6 ar
  11    5   30 1
  12    6   31 1
  13    7    8 1
  14    7   32 1
  15    7   33 1
  16    8    9 1
  17    9   10 1
  18    9   11 1
  19    9   34 1
  20   10   19 1
  21   10   35 1
  22   10   36 1
  23   11   12 1
  24   11   37 1
  25   11   38 1
  26   12   13 1
  27   12   17 1
  28   12   18 1
  29   13   14 2
  30   13   15 2
  31   13   16 1
  32   17   18 1
  33   17   39 1
  34   17   40 1
  35   18   41 1
  36   18   42 1
  37   19   20 1
  38   20   21 1
  39   20   43 1
  40   20   44 1
  41   21   22 ar
  42   21   26 ar
  43   22   23 ar
  44   22   45 1
  45   23   24 ar
  46   23   46 1
  47   24   25 ar
  48   24   47 1
  49   25   26 ar
  50   25   48 1
  51   26   49 1

#	End of record

