#	Name: ASD00990064
#	Creating user name:	WinNT
#	Creation time:	15. 06. 2019 18:54

#	Modifying user name:	WinNT
#	Modification time:	15. 06. 2019 18:54

#	Program:	/corina/corina34_cracker 3.40 0067  02.08.2006

@<TRIPOS>MOLECULE
ASD00990064
  34   34    0    0    0
SMALL
NO_CHARGES


@<TRIPOS>ATOM
   1 C1            -0.0170     1.4008     0.0097 C.ar    
   2 C2             0.0021    -0.0041     0.0020 C.ar    
   3 C3            -1.1927    -0.7111     0.0096 C.ar    
   4 C4            -2.3901    -0.0281     0.0247 C.ar    
   5 C5            -2.4084     1.3595     0.0324 C.ar    
   6 C6            -1.2427     2.0716     0.0301 C.ar    
   7 N7             1.2765     1.8139    -0.0004 N.2     
   8 C8             2.0658     0.7797    -0.0135 C.2     
   9 N9             1.3340    -0.3670    -0.0126 N.pl3   
  10 C10            3.5714     0.8430    -0.0275 C.3     
  11 N11            4.0424     0.9921    -1.4110 N.3     
  12 C12            5.5090     1.0574    -1.4637 C.3     
  13 C13           -3.7275     2.0880     0.0484 C.3     
  14 C14           -4.6847     1.8418    -1.1196 C.3     
  15 C15           -4.9927     1.2538     0.2589 C.3     
  16 H16           -1.1841    -1.7910     0.0034 H       
  17 H17           -3.3204    -0.5768     0.0303 H       
  18 H18           -1.2684     3.1513     0.0364 H       
  19 H19            1.6832    -1.2719    -0.0208 H       
  20 H20            3.9048     1.6958     0.5637 H       
  21 H21            3.9776    -0.0749     0.3976 H       
  22 H22            3.6924     0.2470    -1.9944 H       
  23 H23            5.8558     1.9117    -0.8824 H       
  24 H24            5.9286     0.1410    -1.0485 H       
  25 H25            5.8308     1.1678    -2.4992 H       
  26 H26           -3.7066     3.0888     0.4796 H       
  27 H27           -5.2938     2.6806    -1.4565 H       
  28 H28           -4.3603     1.1529    -1.8995 H       
  29 H29           -4.8710     0.1781     0.3859 H       
  30 H30           -5.8044     1.7058     0.8289 H       
  31 Cl31          10.9286     8.1513     5.8289 Cl      
  32 H32           10.9286     9.5213     5.8289 H       
  33 Cl33          15.9286    14.5213    10.8289 Cl      
  34 H34           15.9286    15.8913    10.8289 H       
@<TRIPOS>BOND
   1    1    2 ar
   2    1    7 1
   3    1    6 ar
   4    2    3 ar
   5    2    9 1
   6    3    4 ar
   7    3   16 1
   8    4    5 ar
   9    4   17 1
  10    5    6 ar
  11    5   13 1
  12    6   18 1
  13    7    8 2
  14    8    9 1
  15    8   10 1
  16    9   19 1
  17   10   11 1
  18   10   20 1
  19   10   21 1
  20   11   12 1
  21   11   22 1
  22   12   23 1
  23   12   24 1
  24   12   25 1
  25   13   14 1
  26   13   15 1
  27   13   26 1
  28   14   15 1
  29   14   27 1
  30   14   28 1
  31   15   29 1
  32   15   30 1
  33   31   32 1
  34   33   34 1

#	End of record

