#	Name: ASD01910501
#	Creating user name:	WinNT
#	Creation time:	15. 06. 2019 19:55

#	Modifying user name:	WinNT
#	Modification time:	15. 06. 2019 19:55

#	Program:	/corina/corina34_cracker 3.40 0067  02.08.2006

@<TRIPOS>MOLECULE
ASD01910501
  43   46    0    0    0
SMALL
NO_CHARGES


@<TRIPOS>ATOM
   1 C1            -0.8212     1.6439    -0.1868 C.ar    
   2 C2            -0.6618     0.1686    -0.1788 C.2     
   3 N3            -1.6559    -0.7459    -0.1135 N.2     
   4 C4            -1.0619    -1.9130    -0.1335 C.2     
   5 O5             0.2529    -1.6844    -0.2089 O.3     
   6 N6             0.4660    -0.4908    -0.2392 N.2     
   7 C7            -1.7345    -3.2606    -0.0808 C.3     
   8 C8            -1.3878    -4.0542    -1.3426 C.3     
   9 C9            -2.0968    -5.4100    -1.3054 C.3     
  10 C10           -1.6116    -6.2022    -0.0873 C.3     
  11 N11           -1.8088    -5.3849     1.1176 N.am    
  12 C12           -1.2452    -4.0285     1.1511 C.3     
  13 C13           -2.4937    -5.8702     2.1720 C.2     
  14 C14           -2.5734    -5.0875     3.4274 C.ar    
  15 O15           -3.0459    -6.9498     2.0930 O.2     
  16 C16           -3.7659    -5.0153     4.1545 C.ar    
  17 C17           -3.7972    -4.2751     5.3199 C.ar    
  18 N18           -2.7236    -3.6418     5.7496 N.ar    
  19 C19           -1.5781    -3.6829     5.0951 C.ar    
  20 C20           -1.4576    -4.4061     3.9203 C.ar    
  21 C21            0.3006     2.4675    -0.2580 C.ar    
  22 C22            0.1479     3.8386    -0.2657 C.ar    
  23 C23           -1.1187     4.3970    -0.2022 C.ar    
  24 C24           -2.2368     3.5817    -0.1313 C.ar    
  25 C25           -2.0935     2.2096    -0.1289 C.ar    
  26 F26           -1.2637     5.7401    -0.2091 F       
  27 F27           -0.5085    -3.0152     5.5801 F       
  28 H28           -2.8146    -3.1260    -0.0210 H       
  29 H29           -1.7130    -3.4984    -2.2220 H       
  30 H30           -0.3099    -4.2092    -1.3893 H       
  31 H31           -3.1734    -5.2557    -1.2337 H       
  32 H32           -1.8681    -5.9652    -2.2151 H       
  33 H33           -2.1842    -7.1256    -0.0003 H       
  34 H34           -0.5530    -6.4356    -0.2013 H       
  35 H35           -0.1568    -4.0846     1.1382 H       
  36 H36           -1.5761    -3.5176     2.0554 H       
  37 H37           -4.6499    -5.5308     3.8093 H       
  38 H38           -4.7142    -4.2139     5.8871 H       
  39 H39           -0.5177    -4.4365     3.3891 H       
  40 H40            1.2882     2.0331    -0.3068 H       
  41 H41            1.0168     4.4776    -0.3209 H       
  42 H42           -3.2222     4.0210    -0.0816 H       
  43 H43           -2.9655     1.5748    -0.0736 H       
@<TRIPOS>BOND
   1    1    2 1
   2    1   21 ar
   3    1   25 ar
   4    2    3 1
   5    2    6 2
   6    3    4 2
   7    4    5 1
   8    4    7 1
   9    5    6 1
  10    7    8 1
  11    7   12 1
  12    7   28 1
  13    8    9 1
  14    8   29 1
  15    8   30 1
  16    9   10 1
  17    9   31 1
  18    9   32 1
  19   10   11 1
  20   10   33 1
  21   10   34 1
  22   11   12 1
  23   11   13 am
  24   12   35 1
  25   12   36 1
  26   13   14 1
  27   13   15 2
  28   14   16 ar
  29   14   20 ar
  30   16   17 ar
  31   16   37 1
  32   17   18 ar
  33   17   38 1
  34   18   19 ar
  35   19   20 ar
  36   19   27 1
  37   20   39 1
  38   21   22 ar
  39   21   40 1
  40   22   23 ar
  41   22   41 1
  42   23   24 ar
  43   23   26 1
  44   24   25 ar
  45   24   42 1
  46   25   43 1

#	End of record

