#	Name: ASD01810478
#	Creating user name:	WinNT
#	Creation time:	15. 06. 2019 19:24

#	Modifying user name:	WinNT
#	Modification time:	15. 06. 2019 19:24

#	Program:	/corina/corina34_cracker 3.40 0067  02.08.2006

@<TRIPOS>MOLECULE
ASD01810478
  70   74    0    0    0
SMALL
NO_CHARGES


@<TRIPOS>ATOM
   1 C1             0.0075     1.4725    -0.5288 C.2     
   2 C2             0.0814    -0.0008    -0.5220 C.ar    
   3 C3             1.1681    -0.6617    -1.1157 C.ar    
   4 C4             1.1955    -2.0296    -1.0861 C.ar    
   5 C5             0.1523    -2.7215    -0.4725 C.ar    
   6 N6            -0.8630    -2.0727     0.0811 N.ar    
   7 C7            -0.9253    -0.7573     0.0798 C.ar    
   8 O8             0.8919     2.1233    -1.0511 O.2     
   9 N9            -1.0431     2.0971     0.0392 N.am    
  10 C10           -1.0603     3.4927     0.1324 C.ar    
  11 C11           -2.2628     4.1817     0.0246 C.ar    
  12 C12           -2.2851     5.5606     0.1164 C.ar    
  13 C13           -1.1137     6.2627     0.3157 C.ar    
  14 C14            0.0990     5.5803     0.4253 C.ar    
  15 C15            0.1209     4.1882     0.3379 C.ar    
  16 C16           -1.1438     7.7662     0.4146 C.3     
  17 C17           -3.5463     3.4228    -0.1936 C.3     
  18 C18           -4.1005     2.9595     1.1551 C.3     
  19 C19            1.3555     6.3300     0.6383 C.2     
  20 O20            1.6778     7.2087    -0.1372 O.2     
  21 N21            2.1434     6.0391     1.6924 N.am    
  22 C22            3.3489     6.8326     1.9674 C.3     
  23 C23            3.2918     7.3306     3.4150 C.3     
  24 C24            3.0971     6.1374     4.3534 C.3     
  25 C25            1.7729     5.4421     4.0292 C.3     
  26 C26            1.8097     4.9262     2.5918 C.3     
  27 F27            4.1517     5.2340     4.1836 F       
  28 C28            3.0745     6.6198     5.7809 C.ar    
  29 C29            3.0128     5.6971     6.8099 C.ar    
  30 C30            2.9927     6.1431     8.1193 C.ar    
  31 C31            3.0360     7.5239     8.3509 C.ar    
  32 C32            3.0974     8.3890     7.2572 C.ar    
  33 N33            3.1194     7.9148     6.0288 N.ar    
  34 C34            3.0172     8.0392     9.6868 C.1     
  35 N35            3.0022     8.4480    10.7466 N.1     
  36 N36            0.1765    -4.1055    -0.4411 N.3     
  37 C37           -1.0121    -4.6393     0.2497 C.3     
  38 C38           -1.0882    -5.7219    -0.8360 C.3     
  39 C39           -0.3644    -4.6720    -1.6907 C.3     
  40 H40            1.9644    -0.1034    -1.5854 H       
  41 H41            2.0174    -2.5682    -1.5342 H       
  42 H42           -1.7641    -0.2602     0.5441 H       
  43 H43           -1.7873     1.5788     0.3834 H       
  44 H44           -3.2224     6.0905     0.0315 H       
  45 H45            1.0557     3.6545     0.4259 H       
  46 H46           -1.3685     8.0584     1.4404 H       
  47 H47           -0.1727     8.1688     0.1265 H       
  48 H48           -1.9120     8.1588    -0.2516 H       
  49 H49           -4.2736     4.0715    -0.6818 H       
  50 H50           -3.3526     2.5550    -0.8242 H       
  51 H51           -3.3732     2.3107     1.6432 H       
  52 H52           -4.2942     3.8272     1.7857 H       
  53 H53           -5.0288     2.4105     0.9973 H       
  54 H54            4.2343     6.2121     1.8291 H       
  55 H55            3.3880     7.6849     1.2891 H       
  56 H56            4.2237     7.8392     3.6618 H       
  57 H57            2.4577     8.0229     3.5289 H       
  58 H58            1.6237     4.6066     4.7131 H       
  59 H59            0.9531     6.1522     4.1373 H       
  60 H60            0.8336     4.5211     2.3253 H       
  61 H61            2.5670     4.1470     2.5054 H       
  62 H62            2.9803     4.6395     6.5933 H       
  63 H63            2.9444     5.4448     8.9418 H       
  64 H64            3.1314     9.4562     7.4198 H       
  65 H65           -0.7965    -5.0344     1.2425 H       
  66 H66           -1.8617    -3.9566     0.2425 H       
  67 H67           -0.4940    -6.6105    -0.6227 H       
  68 H68           -2.1007    -5.9485    -1.1702 H       
  69 H69           -1.0412    -3.9980    -2.2158 H       
  70 H70            0.4001    -5.0948    -2.3425 H       
@<TRIPOS>BOND
   1    1    2 1
   2    1    8 2
   3    1    9 am
   4    2    3 ar
   5    2    7 ar
   6    3    4 ar
   7    3   40 1
   8    4    5 ar
   9    4   41 1
  10    5    6 ar
  11    5   36 1
  12    6    7 ar
  13    7   42 1
  14    9   10 1
  15    9   43 1
  16   10   11 ar
  17   10   15 ar
  18   11   12 ar
  19   11   17 1
  20   12   13 ar
  21   12   44 1
  22   13   14 ar
  23   13   16 1
  24   14   15 ar
  25   14   19 1
  26   15   45 1
  27   16   46 1
  28   16   47 1
  29   16   48 1
  30   17   18 1
  31   17   49 1
  32   17   50 1
  33   18   51 1
  34   18   52 1
  35   18   53 1
  36   19   20 2
  37   19   21 am
  38   21   22 1
  39   21   26 1
  40   22   23 1
  41   22   54 1
  42   22   55 1
  43   23   24 1
  44   23   56 1
  45   23   57 1
  46   24   25 1
  47   24   27 1
  48   24   28 1
  49   25   26 1
  50   25   58 1
  51   25   59 1
  52   26   60 1
  53   26   61 1
  54   28   29 ar
  55   28   33 ar
  56   29   30 ar
  57   29   62 1
  58   30   31 ar
  59   30   63 1
  60   31   32 ar
  61   31   34 1
  62   32   33 ar
  63   32   64 1
  64   34   35 3
  65   36   37 1
  66   36   39 1
  67   37   38 1
  68   37   65 1
  69   37   66 1
  70   38   39 1
  71   38   67 1
  72   38   68 1
  73   39   69 1
  74   39   70 1

#	End of record

