#	Name: ASD05143030
#	Creating user name:	WinNT
#	Creation time:	15. 06. 2019 20:57

#	Modifying user name:	WinNT
#	Modification time:	15. 06. 2019 20:57

#	Program:	/corina/corina34_cracker 3.40 0067  02.08.2006

@<TRIPOS>MOLECULE
ASD05143030
 148  151    0    0    0
SMALL
NO_CHARGES


@<TRIPOS>ATOM
   1 C1            -1.7707     2.5110     4.7490 C.2     
   2 C2            -1.2340     1.3727     5.5779 C.3     
   3 N3            -0.9283     3.2694     4.0198 N.am    
   4 O4            -2.9613     2.7416     4.7341 O.2     
   5 C5            -1.4501     4.3760     3.2139 C.3     
   6 C6            -2.4436     3.8332     2.1848 C.3     
   7 C7            -2.1470     5.3660     4.1114 C.2     
   8 C8            -1.7094     2.9243     1.1970 C.3     
   9 C9            -2.7029     2.3815     0.1679 C.3     
  10 N10           -1.9998     1.5113    -0.7779 N.pl3   
  11 C11           -2.6920     0.9049    -1.7994 C.2     
  12 N12           -2.0322     0.0882    -2.6869 N.pl3   
  13 N13           -3.9738     1.1044    -1.9263 N.2     
  14 O14           -2.5249     5.0251     5.2122 O.2     
  15 N15           -2.3501     6.6302     3.6906 N.am    
  16 C16           -3.0276     7.5926     4.5631 C.3     
  17 C17           -1.9957     8.5456     5.1694 C.3     
  18 C18           -0.8083     7.7412     5.7018 C.3     
  19 C19            0.2013     7.5462     4.6002 C.2     
  20 O20           -0.1525     7.2049     3.4915 O.2     
  21 N21            1.5226     7.7613     4.8733 N.am    
  22 C22            2.4486     7.5415     3.7390 C.3     
  23 C23            2.5737     8.8457     2.9488 C.3     
  24 C24            3.0581     8.5376     1.5305 C.3     
  25 C25            4.0268     9.6300     1.0732 C.3     
  26 N26            3.8166     9.8807    -0.3669 N.am    
  27 C27            5.4451     9.1767     1.3051 C.2     
  28 N28            5.9867     9.2609     2.5364 N.am    
  29 O29            6.0993     8.7362     0.3837 O.2     
  30 C30            2.9988    10.9195    -0.6902 C.2     
  31 O31            2.4878    11.5926     0.1797 O.2     
  32 C32            2.7368    11.2233    -2.1428 C.3     
  33 N33            1.5465    12.0998    -2.2337 N.am    
  34 C34            3.9483    11.9377    -2.7451 C.3     
  35 C35            0.4020    11.4899    -2.6633 C.2     
  36 O36            0.3995    10.3109    -2.9478 O.2     
  37 C37           -0.8575    12.3097    -2.7765 C.3     
  38 N38           -2.0234    11.4146    -2.6363 N.am    
  39 C39           -0.8843    13.3639    -1.6680 C.3     
  40 C40           -3.0168    11.8338    -1.8049 C.2     
  41 O41           -2.9219    12.8903    -1.2168 O.2     
  42 C42           -4.2361    10.9665    -1.6265 C.3     
  43 C43            3.7339    12.1302    -4.2243 C.2     
  44 C44            3.0108    13.2319    -4.8639 C.ar    
  45 C45            3.0735    12.9865    -6.2476 C.ar    
  46 N46            3.7841    11.8202    -6.4215 N.pl3   
  47 C47            4.1743    11.3275    -5.2060 C.2     
  48 C48            2.3427    14.3611    -4.3861 C.ar    
  49 C49            1.7525    15.2231    -5.2666 C.ar    
  50 C50            1.8111    14.9852    -6.6331 C.ar    
  51 C51            2.4657    13.8779    -7.1260 C.ar    
  52 N52           -4.6551    11.0231    -0.2074 N.am    
  53 C53           -3.8989     9.5228    -2.0049 C.3     
  54 C54           -5.1394     8.6735    -1.9010 C.ar    
  55 C55           -6.1433     8.7984    -2.8427 C.ar    
  56 C56           -7.2814     8.0192    -2.7474 C.ar    
  57 C57           -7.4149     7.1149    -1.7106 C.ar    
  58 C58           -6.4103     6.9893    -0.7692 C.ar    
  59 C59           -5.2707     7.7652    -0.8669 C.ar    
  60 C60           -4.0285     8.3819     3.7589 C.2     
  61 N61           -3.5800     9.2176     2.7823 N.am    
  62 O62           -5.2163     8.2737     3.9783 O.2     
  63 C63           -4.6068     9.9646     2.0287 C.3     
  64 C64           -4.6930    11.3965     2.5608 C.3     
  65 C65           -4.2193     9.9896     0.5726 C.2     
  66 C66           -5.1910    11.3739     4.0073 C.3     
  67 N67           -5.2737    12.7486     4.5183 N.3     
  68 O68           -3.5329     9.1076     0.1014 O.2     
  69 C69           -0.7242    12.6793    -0.3091 C.3     
  70 C70           -0.8809    13.7155     0.8056 C.3     
  71 N71           -0.7276    13.0599     2.1068 N.pl3   
  72 C72           -0.8290    13.7960     3.2636 C.2     
  73 N73           -1.0742    15.1472     3.1993 N.pl3   
  74 N74           -0.6926    13.2127     4.4212 N.2     
  75 C75           -5.9976     9.7843    -3.9731 C.3     
  76 H76           -0.9869     1.7349     6.5758 H       
  77 H77           -1.9887     0.5898     5.6521 H       
  78 H78           -0.3380     0.9701     5.1054 H       
  79 H79            0.0235     3.0825     4.0286 H       
  80 H80           -0.6265     4.8700     2.6984 H       
  81 H81           -3.2201     3.2632     2.6949 H       
  82 H82           -2.8981     4.6641     1.6451 H       
  83 H83           -0.9329     3.4944     0.6869 H       
  84 H84           -1.2549     2.0934     1.7367 H       
  85 H85           -3.4794     1.8115     0.6780 H       
  86 H86           -3.1574     3.2124    -0.3717 H       
  87 H87           -1.0459     1.3628    -0.6834 H       
  88 H88           -1.0783    -0.0603    -2.5924 H       
  89 H89           -2.5205    -0.3396    -3.4076 H       
  90 H90           -4.4622     0.6767    -2.6470 H       
  91 H91           -2.0478     6.9028     2.8102 H       
  92 H92           -3.5428     7.0590     5.3617 H       
  93 H93           -1.6498     9.2409     4.4045 H       
  94 H94           -2.4526     9.1032     5.9871 H       
  95 H95           -0.3450     8.2808     6.5278 H       
  96 H96           -1.1558     6.7693     6.0523 H       
  97 H97            1.8326     8.0390     5.7495 H       
  98 H98            3.4277     7.2480     4.1177 H       
  99 H99            2.0545     6.7581     3.0916 H       
 100 H100           1.6018     9.3369     2.9021 H       
 101 H101           3.2897     9.5026     3.4427 H       
 102 H102           3.5672     7.5738     1.5219 H       
 103 H103           2.2039     8.5032     0.8544 H       
 104 H104           3.8372    10.5448     1.6347 H       
 105 H105           4.2391     9.3333    -1.0470 H       
 106 H106           5.4635     9.6132     3.2733 H       
 107 H107           6.8996     8.9691     2.6856 H       
 108 H108           2.5499    10.2951    -2.6829 H       
 109 H109           1.5775    13.0418    -2.0044 H       
 110 H110           4.0721    12.9092    -2.2665 H       
 111 H111           4.8426    11.3361    -2.5828 H       
 112 H112          -0.8882    12.7996    -3.7497 H       
 113 H113          -2.0787    10.5710    -3.1118 H       
 114 H114          -0.0672    14.0695    -1.8178 H       
 115 H115          -1.8346    13.8970    -1.6965 H       
 116 H116          -5.0425    11.3343    -2.2608 H       
 117 H117           3.9820    11.4107    -7.2783 H       
 118 H118           4.7453    10.4228    -5.0580 H       
 119 H119           2.2924    14.5522    -3.3243 H       
 120 H120           1.2358    16.0964    -4.8965 H       
 121 H121           1.3394    15.6756    -7.3166 H       
 122 H122           2.5060    13.7018    -8.1908 H       
 123 H123          -5.2008    11.7439     0.1440 H       
 124 H124          -3.5231     9.4936    -3.0277 H       
 125 H125          -3.1372     9.1380    -1.3268 H       
 126 H126          -8.0662     8.1173    -3.4828 H       
 127 H127          -8.3043     6.5067    -1.6358 H       
 128 H128          -6.5148     6.2830     0.0411 H       
 129 H129          -4.4859     7.6671    -0.1315 H       
 130 H130          -2.6342     9.3175     2.5916 H       
 131 H131          -5.5732     9.4737     2.1431 H       
 132 H132          -3.7062    11.8580     2.5235 H       
 133 H133          -5.3863    11.9712     1.9468 H       
 134 H134          -6.1777    10.9123     4.0447 H       
 135 H135          -4.4976    10.7991     4.6214 H       
 136 H136          -5.6005    12.7606     5.4728 H       
 137 H137          -4.3854    13.2197     4.4343 H       
 138 H138          -1.4870    11.9085    -0.1985 H       
 139 H139           0.2641    12.2241    -0.2458 H       
 140 H140          -0.1181    14.4862     0.6950 H       
 141 H141          -1.8692    14.1706     0.7423 H       
 142 H142          -0.5545    12.1065     2.1522 H       
 143 H143          -1.1757    15.5813     2.3378 H       
 144 H144          -1.1458    15.6666     4.0154 H       
 145 H145          -0.7641    13.7321     5.2373 H       
 146 H146          -5.5140     9.2973    -4.8199 H       
 147 H147          -6.9829    10.1411    -4.2733 H       
 148 H148          -5.3906    10.6276    -3.6437 H       
@<TRIPOS>BOND
   1    1    2 1
   2    1    3 am
   3    1    4 2
   4    2   76 1
   5    2   77 1
   6    2   78 1
   7    3    5 1
   8    3   79 1
   9    5    6 1
  10    5    7 1
  11    5   80 1
  12    6    8 1
  13    6   81 1
  14    6   82 1
  15    7   14 2
  16    7   15 am
  17    8    9 1
  18    8   83 1
  19    8   84 1
  20    9   10 1
  21    9   85 1
  22    9   86 1
  23   10   11 1
  24   10   87 1
  25   11   12 1
  26   11   13 2
  27   12   88 1
  28   12   89 1
  29   13   90 1
  30   15   16 1
  31   15   91 1
  32   16   17 1
  33   16   60 1
  34   16   92 1
  35   17   18 1
  36   17   93 1
  37   17   94 1
  38   18   19 1
  39   18   95 1
  40   18   96 1
  41   19   20 2
  42   19   21 am
  43   21   22 1
  44   21   97 1
  45   22   23 1
  46   22   98 1
  47   22   99 1
  48   23   24 1
  49   23  100 1
  50   23  101 1
  51   24   25 1
  52   24  102 1
  53   24  103 1
  54   25   26 1
  55   25   27 1
  56   25  104 1
  57   26   30 am
  58   26  105 1
  59   27   28 am
  60   27   29 2
  61   28  106 1
  62   28  107 1
  63   30   31 2
  64   30   32 1
  65   32   33 1
  66   32   34 1
  67   32  108 1
  68   33   35 am
  69   33  109 1
  70   34   43 1
  71   34  110 1
  72   34  111 1
  73   35   36 2
  74   35   37 1
  75   37   38 1
  76   37   39 1
  77   37  112 1
  78   38   40 am
  79   38  113 1
  80   39   69 1
  81   39  114 1
  82   39  115 1
  83   40   41 2
  84   40   42 1
  85   42   52 1
  86   42   53 1
  87   42  116 1
  88   43   44 1
  89   43   47 2
  90   44   45 ar
  91   44   48 ar
  92   45   46 1
  93   45   51 ar
  94   46   47 1
  95   46  117 1
  96   47  118 1
  97   48   49 ar
  98   48  119 1
  99   49   50 ar
 100   49  120 1
 101   50   51 ar
 102   50  121 1
 103   51  122 1
 104   52   65 am
 105   52  123 1
 106   53   54 1
 107   53  124 1
 108   53  125 1
 109   54   55 ar
 110   54   59 ar
 111   55   56 ar
 112   55   75 1
 113   56   57 ar
 114   56  126 1
 115   57   58 ar
 116   57  127 1
 117   58   59 ar
 118   58  128 1
 119   59  129 1
 120   60   61 am
 121   60   62 2
 122   61   63 1
 123   61  130 1
 124   63   64 1
 125   63   65 1
 126   63  131 1
 127   64   66 1
 128   64  132 1
 129   64  133 1
 130   65   68 2
 131   66   67 1
 132   66  134 1
 133   66  135 1
 134   67  136 1
 135   67  137 1
 136   69   70 1
 137   69  138 1
 138   69  139 1
 139   70   71 1
 140   70  140 1
 141   70  141 1
 142   71   72 1
 143   71  142 1
 144   72   73 1
 145   72   74 2
 146   73  143 1
 147   73  144 1
 148   74  145 1
 149   75  146 1
 150   75  147 1
 151   75  148 1

#	End of record

