#	Name: ASD00111013
#	Creating user name:	WinNT
#	Creation time:	15. 06. 2019 18:30

#	Modifying user name:	WinNT
#	Modification time:	15. 06. 2019 18:30

#	Program:	/corina/corina34_cracker 3.40 0067  02.08.2006

@<TRIPOS>MOLECULE
ASD00111013
  33   35    0    0    0
SMALL
NO_CHARGES


@<TRIPOS>ATOM
   1 C1            -0.0170     1.4007     0.0097 C.ar    
   2 C2             0.0021    -0.0041     0.0020 C.ar    
   3 C3            -1.2009    -0.7003     0.0073 C.ar    
   4 C4            -2.3911    -0.0026     0.0170 C.ar    
   5 C5            -2.4024     1.3765     0.0252 C.ar    
   6 C6            -1.2323     2.0850     0.0200 C.ar    
   7 C7            -3.7004    -0.7659     0.0161 C.3     
   8 C8            -4.3705    -0.5745     1.3798 C.3     
   9 N9            -5.1431     0.6567     1.4091 N.3     
  10 C10           -4.3901     1.9000     1.3947 C.3     
  11 C11           -3.7235     2.1189     0.0332 C.3     
  12 C12           -3.4768     3.6129    -0.1859 C.3     
  13 C13            1.3920     1.8120    -0.0015 C.2     
  14 C14            2.1110     0.6813    -0.0142 C.2     
  15 O15            1.2946    -0.3869    -0.0108 O.3     
  16 C16            1.9231     3.2223     0.0003 C.3     
  17 H17           -1.2039    -1.7803     0.0034 H       
  18 H18           -1.2492     3.1649     0.0292 H       
  19 H19           -4.3499    -0.3801    -0.7697 H       
  20 H20           -3.5078    -1.8253    -0.1530 H       
  21 H21           -5.0328    -1.4179     1.5753 H       
  22 H22           -3.6038    -0.5350     2.1536 H       
  23 H23           -5.8527     0.6554     0.6918 H       
  24 H24           -5.0655     2.7304     1.6007 H       
  25 H25           -3.6226     1.8631     2.1678 H       
  26 H26           -4.3669     1.7324    -0.7572 H       
  27 H27           -2.8250     3.9928     0.6008 H       
  28 H28           -3.0025     3.7644    -1.1555 H       
  29 H29           -4.4273     4.1458    -0.1592 H       
  30 H30            3.1900     0.6349    -0.0255 H       
  31 H31            2.0608     3.5573     1.0284 H       
  32 H32            2.8792     3.2511    -0.5224 H       
  33 H33            1.2135     3.8784    -0.5037 H       
@<TRIPOS>BOND
   1    1    2 ar
   2    1   13 1
   3    1    6 ar
   4    2    3 ar
   5    2   15 1
   6    3    4 ar
   7    3   17 1
   8    4    5 ar
   9    4    7 1
  10    5    6 ar
  11    5   11 1
  12    6   18 1
  13    7    8 1
  14    7   19 1
  15    7   20 1
  16    8    9 1
  17    8   21 1
  18    8   22 1
  19    9   10 1
  20    9   23 1
  21   10   11 1
  22   10   24 1
  23   10   25 1
  24   11   12 1
  25   11   26 1
  26   12   27 1
  27   12   28 1
  28   12   29 1
  29   13   14 2
  30   13   16 1
  31   14   15 1
  32   14   30 1
  33   16   31 1
  34   16   32 1
  35   16   33 1

#	End of record

