#	Name: ASD00450011
#	Creating user name:	WinNT
#	Creation time:	15. 06. 2019 18:35

#	Modifying user name:	WinNT
#	Modification time:	15. 06. 2019 18:35

#	Program:	/corina/corina34_cracker 3.40 0067  02.08.2006

@<TRIPOS>MOLECULE
ASD00450011
  71   75    0    0    0
SMALL
NO_CHARGES


@<TRIPOS>ATOM
   1 C1             0.8184     0.8038    -0.3029 C.3     
   2 C2             7.3841     8.2589    -3.7425 C.2     
   3 N3             8.0184     8.1057    -4.9351 N.am    
   4 C4             7.3268     7.7472    -6.0419 C.2     
   5 C5             5.8792     7.5335    -5.8959 C.ar    
   6 C6             5.3069     7.7160    -4.6173 C.ar    
   7 N7             6.1087     8.0776    -3.5837 N.2     
   8 C8             5.0770     7.1630    -6.9725 C.ar    
   9 C9             3.7192     6.9769    -6.7740 C.ar    
  10 C10            3.1595     7.1585    -5.5092 C.ar    
  11 C11            3.9345     7.5217    -4.4452 C.ar    
  12 N12            2.9045     6.6054    -7.8475 N.pl3   
  13 C13            1.8974     5.6550    -7.6638 C.ar    
  14 C14            1.8087     4.9592    -6.4663 C.ar    
  15 C15            0.8067     4.0159    -6.2880 C.ar    
  16 C16           -0.1042     3.7709    -7.3080 C.ar    
  17 C17           -0.0134     4.4653    -8.4993 C.ar    
  18 C18            0.9792     5.4090    -8.6782 C.ar    
  19 C19            1.0746     6.1639    -9.9790 C.3     
  20 N20            0.7141     3.3123    -5.0830 N.am    
  21 C21           -0.4950     2.9971    -4.5779 C.2     
  22 C22           -0.5939     2.3110    -3.2812 C.2     
  23 O23           -1.5047     3.2802    -5.1949 O.2     
  24 N24            0.4367     1.9388    -2.4923 N.2     
  25 C25           -0.0241     1.3577    -1.4229 C.2     
  26 N26           -1.3816     1.3273    -1.4713 N.pl3   
  27 C27           -1.7647     1.9312    -2.6384 C.2     
  28 C28           -3.1459     2.1306    -3.1215 C.ar    
  29 C29           -4.1338     2.5939    -2.2500 C.ar    
  30 C30           -5.4218     2.7783    -2.7081 C.ar    
  31 C31           -5.7360     2.5049    -4.0276 C.ar    
  32 C32           -4.7621     2.0456    -4.8966 C.ar    
  33 C33           -3.4687     1.8622    -4.4534 C.ar    
  34 C34            9.4633     8.3311    -5.0232 C.3     
  35 O35            7.8814     7.6072    -7.1165 O.2     
  36 C36           -7.1456     2.7079    -4.5205 C.3     
  37 C37            0.8456    -0.7233    -0.3925 C.3     
  38 C38            2.2439     1.3470    -0.4204 C.3     
  39 C39            0.2212     1.2253     1.0411 C.3     
  40 H40            7.9723     8.5417    -2.8821 H       
  41 H41            5.5095     7.0225    -7.9521 H       
  42 H42            2.0989     7.0101    -5.3697 H       
  43 H43            3.4869     7.6582    -3.4718 H       
  44 H44            3.0386     7.0075    -8.7200 H       
  45 H45            2.5182     5.1513    -5.6750 H       
  46 H46           -0.8840     3.0366    -7.1699 H       
  47 H47           -0.7227     4.2728    -9.2905 H       
  48 H48            0.4749     7.0720    -9.9169 H       
  49 H49            2.1147     6.4277   -10.1706 H       
  50 H50            0.7031     5.5379   -10.7904 H       
  51 H51            1.5201     3.0512    -4.6107 H       
  52 H52           -1.9714     0.9501    -0.7999 H       
  53 H53           -3.8900     2.8069    -1.2197 H       
  54 H54           -6.1868     3.1365    -2.0351 H       
  55 H55           -5.0142     1.8342    -5.9252 H       
  56 H56           -2.7095     1.5037    -5.1326 H       
  57 H57            9.8478     8.6105    -4.0423 H       
  58 H58            9.9538     7.4174    -5.3590 H       
  59 H59            9.6632     9.1331    -5.7338 H       
  60 H60           -7.2567     3.7257    -4.8945 H       
  61 H61           -7.3552     2.0010    -5.3232 H       
  62 H62           -7.8444     2.5440    -3.7002 H       
  63 H63            1.4550    -1.1240     0.4176 H       
  64 H64           -0.1700    -1.1103    -0.3088 H       
  65 H65            1.2711    -1.0237    -1.3500 H       
  66 H66            2.6694     1.0467    -1.3780 H       
  67 H67            2.2246     2.4349    -0.3567 H       
  68 H68            2.8533     0.9463     0.3896 H       
  69 H69            0.8306     0.8247     1.8512 H       
  70 H70            0.2018     2.3133     1.1049 H       
  71 H71           -0.7944     0.8384     1.1248 H       
@<TRIPOS>BOND
   1    1   37 1
   2    1   38 1
   3    1   39 1
   4    1   25 1
   5    2    3 1
   6    2    7 2
   7    2   40 1
   8    3    4 am
   9    3   34 1
  10    4    5 1
  11    4   35 2
  12    5    6 ar
  13    5    8 ar
  14    6    7 1
  15    6   11 ar
  16    8    9 ar
  17    8   41 1
  18    9   10 ar
  19    9   12 1
  20   10   11 ar
  21   10   42 1
  22   11   43 1
  23   12   13 1
  24   12   44 1
  25   13   14 ar
  26   13   18 ar
  27   14   15 ar
  28   14   45 1
  29   15   16 ar
  30   15   20 1
  31   16   17 ar
  32   16   46 1
  33   17   18 ar
  34   17   47 1
  35   18   19 1
  36   19   48 1
  37   19   49 1
  38   19   50 1
  39   20   21 am
  40   20   51 1
  41   21   22 1
  42   21   23 2
  43   22   24 1
  44   22   27 2
  45   24   25 2
  46   25   26 1
  47   26   27 1
  48   26   52 1
  49   27   28 1
  50   28   29 ar
  51   28   33 ar
  52   29   30 ar
  53   29   53 1
  54   30   31 ar
  55   30   54 1
  56   31   32 ar
  57   31   36 1
  58   32   33 ar
  59   32   55 1
  60   33   56 1
  61   34   57 1
  62   34   58 1
  63   34   59 1
  64   36   60 1
  65   36   61 1
  66   36   62 1
  67   37   63 1
  68   37   64 1
  69   37   65 1
  70   38   66 1
  71   38   67 1
  72   38   68 1
  73   39   69 1
  74   39   70 1
  75   39   71 1

#	End of record

