#	Name: ASD00842170
#	Creating user name:	WinNT
#	Creation time:	15. 06. 2019 18:43

#	Modifying user name:	WinNT
#	Modification time:	15. 06. 2019 18:43

#	Program:	/corina/corina34_cracker 3.40 0067  02.08.2006

@<TRIPOS>MOLECULE
ASD00842170
  93   98    0    0    0
SMALL
NO_CHARGES


@<TRIPOS>ATOM
   1 F1             6.1141    -1.8003    -1.9442 F       
   2 C2             1.0685     1.5477    -0.5291 C.ar    
   3 C3             1.3541     0.2040    -0.7212 C.ar    
   4 C4             1.2588    -0.6821     0.3423 C.ar    
   5 C5             0.8800    -0.2244     1.5893 C.ar    
   6 C6             0.5954     1.1156     1.7781 C.ar    
   7 C7             0.6900     2.0006     0.7202 C.ar    
   8 C8             1.5679    -2.1427     0.1370 C.3     
   9 C9             1.2697    -2.9296     1.3952 C.2     
  10 C10            0.7689    -2.6973    -1.0440 C.3     
  11 C11           -0.6976    -2.4231    -0.8313 C.2     
  12 N12           -1.6070    -2.9104    -1.6984 N.am    
  13 O13           -1.0595    -1.7639     0.1203 O.2     
  14 C14           -3.0309    -2.5639    -1.5732 C.3     
  15 C15           -3.5316    -2.0638    -2.9324 C.3     
  16 N16           -3.2242    -3.0650    -3.9625 N.3     
  17 C17           -1.7746    -3.2540    -4.1062 C.3     
  18 C18           -1.2010    -3.7979    -2.7987 C.3     
  19 C19           -3.8380    -2.7039    -5.2473 C.3     
  20 C20           -3.3955    -3.6993    -6.3235 C.3     
  21 C21           -4.0855    -3.3543    -7.6452 C.3     
  22 N22           -5.5421    -3.4128    -7.4682 N.3     
  23 C23           -5.9960    -2.4325    -6.4735 C.3     
  24 C24           -5.3629    -2.7499    -5.1168 C.3     
  25 H25           -6.0188    -3.2826    -8.3479 H       
  26 O26            0.1893    -3.0422     1.9349 O.2     
  27 N27            2.4256    -3.4805     1.8020 N.am    
  28 C28            3.0504    -2.3446    -0.0814 C.ar    
  29 C29            3.4910    -3.1574     0.9581 C.ar    
  30 C30            3.9210    -1.8915    -1.0479 C.ar    
  31 C31            5.2586    -2.2429    -0.9969 C.ar    
  32 C32            5.7196    -3.0593     0.0409 C.ar    
  33 C33            4.8328    -3.5150     1.0161 C.ar    
  34 C34            2.2943    -6.0980     2.6419 C.ar    
  35 C35            1.0493    -6.4790     2.1621 C.ar    
  36 C36            3.3193    -7.0219     2.7173 C.ar    
  37 C37            3.1075    -8.3264     2.3150 C.ar    
  38 C38            1.8640    -8.7125     1.8343 C.ar    
  39 C39            0.8341    -7.7878     1.7581 C.ar    
  40 O40            1.6561    -9.9960     1.4392 O.3     
  41 O41            0.0416    -5.5702     2.0886 O.3     
  42 C42            2.7620   -10.8948     1.5458 C.3     
  43 C43           -1.2132    -6.0323     1.5848 C.3     
  44 C44           -2.2162    -4.8768     1.5765 C.3     
  45 C45            7.1020    -3.4280     0.1018 C.1     
  46 N46            8.1986    -3.7205     0.1501 N.1     
  47 S47            2.5706    -4.4332     3.1486 S.o2    
  48 O48            3.9317    -4.3566     3.5497 O.2     
  49 O49            1.4882    -4.0887     4.0024 O.2     
  50 O50            1.7262    -0.2440    -1.9491 O.3     
  51 C51            2.2414     0.0474    -4.2922 C.3     
  52 C52            1.6939     0.7001    -3.0213 C.3     
  53 H53            1.1463     2.2401    -1.3542 H       
  54 H54            0.8057    -0.9137     2.4174 H       
  55 H55            0.2986     1.4715     2.7537 H       
  56 H56            0.4671     3.0466     0.8702 H       
  57 H57            1.0989    -2.2154    -1.9643 H       
  58 H58            0.9303    -3.7727    -1.1189 H       
  59 H59           -3.5978    -3.4463    -1.2763 H       
  60 H60           -3.1525    -1.7789    -0.8268 H       
  61 H61           -4.6093    -1.9069    -2.8877 H       
  62 H62           -3.0368    -1.1244    -3.1791 H       
  63 H63           -1.5780    -3.9602    -4.9128 H       
  64 H64           -1.3042    -2.2980    -4.3365 H       
  65 H65           -0.1134    -3.8314    -2.8619 H       
  66 H66           -1.5910    -4.7993    -2.6164 H       
  67 H67           -3.5258    -1.6987    -5.5304 H       
  68 H68           -2.3146    -3.6405    -6.4511 H       
  69 H69           -3.6724    -4.7092    -6.0211 H       
  70 H70           -3.7973    -2.3495    -7.9540 H       
  71 H71           -3.7836    -4.0698    -8.4100 H       
  72 H72           -5.6987    -1.4320    -6.7878 H       
  73 H73           -7.0816    -2.4785    -6.3874 H       
  74 H74           -5.6708    -3.7449    -4.7954 H       
  75 H75           -5.6877    -2.0129    -4.3824 H       
  76 H76            3.5591    -1.2613    -1.8469 H       
  77 H77            5.1891    -4.1455     1.8173 H       
  78 H78            4.2876    -6.7234     3.0910 H       
  79 H79            3.9103    -9.0464     2.3742 H       
  80 H80           -0.1343    -8.0864     1.3847 H       
  81 H81            2.4615   -11.8833     1.1984 H       
  82 H82            3.5870   -10.5299     0.9340 H       
  83 H83            3.0808   -10.9567     2.5863 H       
  84 H84           -1.0816    -6.4064     0.5695 H       
  85 H85           -1.5876    -6.8337     2.2216 H       
  86 H86           -3.1733    -5.2293     1.1922 H       
  87 H87           -2.3478    -4.5027     2.5918 H       
  88 H88           -1.8418    -4.0754     0.9396 H       
  89 H89            2.2987     0.7912    -5.0869 H       
  90 H90            3.2364    -0.3520    -4.0959 H       
  91 H91            1.5790    -0.7620    -4.5992 H       
  92 H92            0.6664     1.0215    -3.1916 H       
  93 H93            2.3068     1.5638    -2.7635 H       
@<TRIPOS>BOND
   1    1   31 1
   2    2    3 ar
   3    2    7 ar
   4    2   53 1
   5    3    4 ar
   6    3   50 1
   7    4    5 ar
   8    4    8 1
   9    5    6 ar
  10    5   54 1
  11    6    7 ar
  12    6   55 1
  13    7   56 1
  14    8    9 1
  15    8   10 1
  16    8   28 1
  17    9   26 2
  18    9   27 am
  19   10   11 1
  20   10   57 1
  21   10   58 1
  22   11   12 am
  23   11   13 2
  24   12   14 1
  25   12   18 1
  26   14   15 1
  27   14   59 1
  28   14   60 1
  29   15   16 1
  30   15   61 1
  31   15   62 1
  32   16   17 1
  33   16   19 1
  34   17   18 1
  35   17   63 1
  36   17   64 1
  37   18   65 1
  38   18   66 1
  39   19   20 1
  40   19   24 1
  41   19   67 1
  42   20   21 1
  43   20   68 1
  44   20   69 1
  45   21   22 1
  46   21   70 1
  47   21   71 1
  48   22   23 1
  49   22   25 1
  50   23   24 1
  51   23   72 1
  52   23   73 1
  53   24   74 1
  54   24   75 1
  55   27   47 am
  56   27   29 1
  57   28   29 ar
  58   28   30 ar
  59   29   33 ar
  60   30   31 ar
  61   30   76 1
  62   31   32 ar
  63   32   33 ar
  64   32   45 1
  65   33   77 1
  66   34   35 ar
  67   34   36 ar
  68   34   47 1
  69   35   41 1
  70   35   39 ar
  71   36   37 ar
  72   36   78 1
  73   37   38 ar
  74   37   79 1
  75   38   39 ar
  76   38   40 1
  77   39   80 1
  78   40   42 1
  79   41   43 1
  80   42   81 1
  81   42   82 1
  82   42   83 1
  83   43   44 1
  84   43   84 1
  85   43   85 1
  86   44   86 1
  87   44   87 1
  88   44   88 1
  89   45   46 3
  90   47   48 2
  91   47   49 2
  92   50   52 1
  93   51   52 1
  94   51   89 1
  95   51   90 1
  96   51   91 1
  97   52   92 1
  98   52   93 1

#	End of record

