#	Name: ASD01916521
#	Creating user name:	WinNT
#	Creation time:	15. 06. 2019 20:07

#	Modifying user name:	WinNT
#	Modification time:	15. 06. 2019 20:07

#	Program:	/corina/corina34_cracker 3.40 0067  02.08.2006

@<TRIPOS>MOLECULE
ASD01916521
  46   50    0    0    0
SMALL
NO_CHARGES


@<TRIPOS>ATOM
   1 C1            -0.0171     1.4079     0.0098 C.ar    
   2 C2             0.0021    -0.0041     0.0020 C.ar    
   3 N3            -1.1270    -0.7009     0.0288 N.ar    
   4 C4            -2.2981    -0.1108     0.0509 C.ar    
   5 C5            -2.4077     1.2902     0.0493 C.ar    
   6 C6            -1.2491     2.0684     0.0309 C.ar    
   7 N7             1.1547     2.0811     0.0022 N.2     
   8 C8             2.3152     1.4791    -0.0262 C.2     
   9 N9             2.4241     0.1260    -0.0919 N.am    
  10 C10            1.3180    -0.6596    -0.0433 C.2     
  11 C11           -3.6966     1.9140     0.0669 C.1     
  12 O12            1.4126    -1.8731    -0.0370 O.2     
  13 C13           -4.7533     2.4253     0.0813 C.1     
  14 C14           -6.0422     3.0491     0.0988 C.ar    
  15 N15           -6.1337     4.3755     0.0971 N.ar    
  16 C16           -7.3002     4.9863     0.1125 C.ar    
  17 C17           -8.4804     4.2650     0.1311 C.ar    
  18 C18           -8.4320     2.8775     0.1336 C.ar    
  19 C19           -7.1949     2.2593     0.1118 C.ar    
  20 C20            3.5404     2.3719     0.0464 C.3     
  21 N21            4.6834     1.6432    -0.4924 N.3     
  22 C22            4.8204     0.3659     0.2650 C.3     
  23 C23            3.7191    -0.5574    -0.2421 C.3     
  24 C24            5.9789     2.3187    -0.3546 C.3     
  25 C25            7.0350     1.2039    -0.1801 C.3     
  26 C26            6.2235    -0.1177    -0.1505 C.3     
  27 C27            4.7092     0.5909     1.7743 C.3     
  28 H28           -3.1946    -0.7127     0.0703 H       
  29 H29           -1.3027     3.1470     0.0318 H       
  30 H30           -7.3360     6.0657     0.1109 H       
  31 H31           -9.4313     4.7769     0.1440 H       
  32 H32           -9.3405     2.2937     0.1483 H       
  33 H33           -7.1208     1.1819     0.1127 H       
  34 H34            3.3711     3.2735    -0.5423 H       
  35 H35            3.7351     2.6416     1.0844 H       
  36 H36            3.7165    -1.4781     0.3413 H       
  37 H37            3.8909    -0.7884    -1.2934 H       
  38 H38            6.1943     2.9012    -1.2504 H       
  39 H39            5.9714     2.9674     0.5213 H       
  40 H40            7.7282     1.2038    -1.0212 H       
  41 H41            7.5754     1.3375     0.7571 H       
  42 H42            6.6310    -0.8063     0.5897 H       
  43 H43            6.1979    -0.5789    -1.1377 H       
  44 H44            3.7369     1.0256     2.0062 H       
  45 H45            4.8139    -0.3624     2.2924 H       
  46 H46            5.4976     1.2697     2.0995 H       
@<TRIPOS>BOND
   1    1    2 ar
   2    1    7 1
   3    1    6 ar
   4    2    3 ar
   5    2   10 1
   6    3    4 ar
   7    4    5 ar
   8    4   28 1
   9    5    6 ar
  10    5   11 1
  11    6   29 1
  12    7    8 2
  13    8    9 1
  14    8   20 1
  15    9   10 am
  16    9   23 1
  17   10   12 2
  18   11   13 3
  19   13   14 1
  20   14   15 ar
  21   14   19 ar
  22   15   16 ar
  23   16   17 ar
  24   16   30 1
  25   17   18 ar
  26   17   31 1
  27   18   19 ar
  28   18   32 1
  29   19   33 1
  30   20   21 1
  31   20   34 1
  32   20   35 1
  33   21   22 1
  34   21   24 1
  35   22   23 1
  36   22   27 1
  37   22   26 1
  38   23   36 1
  39   23   37 1
  40   24   25 1
  41   24   38 1
  42   24   39 1
  43   25   26 1
  44   25   40 1
  45   25   41 1
  46   26   42 1
  47   26   43 1
  48   27   44 1
  49   27   45 1
  50   27   46 1

#	End of record

