#	Name: ASD04910168
#	Creating user name:	WinNT
#	Creation time:	15. 06. 2019 20:55

#	Modifying user name:	WinNT
#	Modification time:	15. 06. 2019 20:55

#	Program:	/corina/corina34_cracker 3.40 0067  02.08.2006

@<TRIPOS>MOLECULE
ASD04910168
  29   31    0    0    0
SMALL
NO_CHARGES


@<TRIPOS>ATOM
   1 C1            -0.0167     1.3824     0.0096 C.ar    
   2 C2             0.0021    -0.0041     0.0020 C.ar    
   3 C3             1.2263    -0.6661    -0.0133 C.ar    
   4 C4             2.3849     0.0909    -0.0203 C.ar    
   5 C5             2.2883     1.4765    -0.0120 C.ar    
   6 N6             1.1070     2.0721     0.0026 N.ar    
   7 O7            -1.1609    -0.7081     0.0098 O.3     
   8 N8             3.4534     2.2511    -0.0185 N.pl3   
   9 N9             4.7650     1.7615    -0.0337 N.2     
  10 C10            5.5877     2.7769    -0.0361 C.2     
  11 C11            4.8235     3.9609    -0.0224 C.2     
  12 C12            3.5075     3.6015    -0.0171 C.2     
  13 C13            5.3542     5.3474    -0.0200 C.ar    
  14 C14            6.7294     5.5695    -0.0324 C.ar    
  15 C15            7.2174     6.8606    -0.0306 C.ar    
  16 C16            6.3438     7.9329    -0.0164 C.ar    
  17 C17            4.9774     7.7179    -0.0035 C.ar    
  18 C18            4.4787     6.4310    -0.0110 C.ar    
  19 H19           -0.9627     1.9034     0.0169 H       
  20 H20            1.2710    -1.7452    -0.0191 H       
  21 H21            3.3520    -0.3897    -0.0318 H       
  22 H22           -1.5062    -0.9070    -0.8712 H       
  23 H23            6.6661     2.7188    -0.0464 H       
  24 H24            2.6624     4.2740    -0.0105 H       
  25 H25            7.4125     4.7330    -0.0431 H       
  26 H26            8.2834     7.0340    -0.0398 H       
  27 H27            6.7298     8.9415    -0.0150 H       
  28 H28            4.2996     8.5587     0.0079 H       
  29 H29            3.4116     6.2642    -0.0059 H       
@<TRIPOS>BOND
   1    1    2 ar
   2    1    6 ar
   3    1   19 1
   4    2    3 ar
   5    2    7 1
   6    3    4 ar
   7    3   20 1
   8    4    5 ar
   9    4   21 1
  10    5    6 ar
  11    5    8 1
  12    7   22 1
  13    8    9 1
  14    8   12 1
  15    9   10 2
  16   10   11 1
  17   10   23 1
  18   11   12 2
  19   11   13 1
  20   12   24 1
  21   13   14 ar
  22   13   18 ar
  23   14   15 ar
  24   14   25 1
  25   15   16 ar
  26   15   26 1
  27   16   17 ar
  28   16   27 1
  29   17   18 ar
  30   17   28 1
  31   18   29 1

#	End of record

