#	Name: ASD01910198
#	Creating user name:	WinNT
#	Creation time:	15. 06. 2019 19:55

#	Modifying user name:	WinNT
#	Modification time:	15. 06. 2019 19:55

#	Program:	/corina/corina34_cracker 3.40 0067  02.08.2006

@<TRIPOS>MOLECULE
ASD01910198
  48   51    0    0    0
SMALL
NO_CHARGES


@<TRIPOS>ATOM
   1 C1             0.1139     1.1777    -1.4285 C.ar    
   2 C2             0.1415    -0.1976    -1.2975 C.ar    
   3 C3             1.3366    -0.8565    -1.0517 C.ar    
   4 C4             2.5104    -0.1300    -0.9374 C.ar    
   5 C5             2.4823     1.2735    -1.0715 C.ar    
   6 C6             1.2810     1.9181    -1.3165 C.ar    
   7 C7             3.9234    -0.4839    -0.6866 C.2     
   8 N8             4.6534     0.6460    -0.6785 N.am    
   9 C9             3.8792     1.7241    -0.8977 C.2     
  10 O10            4.2638     2.8751    -0.9452 O.2     
  11 O11            4.3534    -1.6068    -0.5163 O.2     
  12 C12            6.0385     0.6938    -0.4684 C.ar    
  13 C13            6.7486    -0.4799    -0.2494 C.ar    
  14 C14            8.1149    -0.4384    -0.0412 C.ar    
  15 C15            8.7822     0.7692    -0.0495 C.ar    
  16 C16            8.0776     1.9545    -0.2692 C.ar    
  17 C17            6.7002     1.9115    -0.4848 C.ar    
  18 C18            8.7897     3.2499    -0.2783 C.2     
  19 N19           10.1213     3.2883    -0.0743 N.am    
  20 C20           10.8101     4.5007    -0.1796 C.ar    
  21 C21           10.2079     5.6801     0.2374 C.ar    
  22 C22           10.8915     6.8817     0.1326 C.ar    
  23 C23           12.1764     6.9059    -0.3890 C.ar    
  24 C24           12.7786     5.7281    -0.8057 C.ar    
  25 C25           12.0987     4.5248    -0.6958 C.ar    
  26 O26            8.1741     4.2805    -0.4697 O.2     
  27 O27           14.0375     5.7528    -1.3170 O.3     
  28 C28           14.6808     7.0264    -1.3959 C.3     
  29 O29           10.3022     8.0363     0.5407 O.3     
  30 C30           11.0643     9.2373     0.4037 C.3     
  31 H31           -0.8225     1.6790    -1.6240 H       
  32 H32           -0.7742    -0.7633    -1.3868 H       
  33 H33            1.3521    -1.9316    -0.9495 H       
  34 H34            1.2535     2.9927    -1.4205 H       
  35 H35            6.2317    -1.4281    -0.2414 H       
  36 H36            8.6615    -1.3542     0.1289 H       
  37 H37            9.8494     0.7977     0.1142 H       
  38 H38            6.1498     2.8249    -0.6553 H       
  39 H39           10.6020     2.4749     0.1456 H       
  40 H40            9.2071     5.6615     0.6429 H       
  41 H41           12.7081     7.8423    -0.4710 H       
  42 H42           12.5678     3.6077    -1.0204 H       
  43 H43           15.6770     6.9045    -1.8211 H       
  44 H44           14.0940     7.6911    -2.0299 H       
  45 H45           14.7619     7.4549    -0.3970 H       
  46 H46           11.3144     9.3912    -0.6460 H       
  47 H47           10.4787    10.0825     0.7654 H       
  48 H48           11.9812     9.1543     0.9873 H       
@<TRIPOS>BOND
   1    1    2 ar
   2    1    6 ar
   3    1   31 1
   4    2    3 ar
   5    2   32 1
   6    3    4 ar
   7    3   33 1
   8    4    5 ar
   9    4    7 1
  10    5    6 ar
  11    5    9 1
  12    6   34 1
  13    7    8 am
  14    7   11 2
  15    8    9 am
  16    8   12 1
  17    9   10 2
  18   12   13 ar
  19   12   17 ar
  20   13   14 ar
  21   13   35 1
  22   14   15 ar
  23   14   36 1
  24   15   16 ar
  25   15   37 1
  26   16   17 ar
  27   16   18 1
  28   17   38 1
  29   18   19 am
  30   18   26 2
  31   19   20 1
  32   19   39 1
  33   20   21 ar
  34   20   25 ar
  35   21   22 ar
  36   21   40 1
  37   22   23 ar
  38   22   29 1
  39   23   24 ar
  40   23   41 1
  41   24   25 ar
  42   24   27 1
  43   25   42 1
  44   27   28 1
  45   28   43 1
  46   28   44 1
  47   28   45 1
  48   29   30 1
  49   30   46 1
  50   30   47 1
  51   30   48 1

#	End of record

