#	Name: ASD01940454
#	Creating user name:	WinNT
#	Creation time:	15. 06. 2019 20:12

#	Modifying user name:	WinNT
#	Modification time:	15. 06. 2019 20:12

#	Program:	/corina/corina34_cracker 3.40 0067  02.08.2006

@<TRIPOS>MOLECULE
ASD01940454
  29   29    0    0    0
SMALL
NO_CHARGES


@<TRIPOS>ATOM
   1 C1            -0.0180     1.4740     0.0101 C.2     
   2 C2             0.0021    -0.0041     0.0020 C.ar    
   3 C3             1.2216    -0.6855    -0.0133 C.ar    
   4 C4             1.2390    -2.0704    -0.0204 C.ar    
   5 C5             0.0345    -2.7826    -0.0123 C.ar    
   6 C6            -1.1840    -2.0944     0.0030 C.ar    
   7 C7            -1.1988    -0.7188     0.0155 C.ar    
   8 O8             1.0255     2.0955     0.0035 O.2     
   9 O9            -1.1936     2.1316     0.0193 O.3     
  10 C10            0.0490    -4.2549    -0.0203 C.2     
  11 O11           -0.9949    -4.8715    -0.0133 O.2     
  12 F12            2.4166    -2.7324    -0.0357 F       
  13 F13            2.3824     0.0055    -0.0216 F       
  14 C14           -1.1372     3.5824     0.0269 C.3     
  15 C15           -0.4027     4.0709    -1.2232 C.3     
  16 C16           -2.5589     4.1480     0.0367 C.3     
  17 C17           -0.3908     4.0573     1.2752 C.3     
  18 H18           -2.1137    -2.6439     0.0093 H       
  19 H19           -2.1405    -0.1901     0.0318 H       
  20 H20            0.9896    -4.7856    -0.0325 H       
  21 H21           -0.9344     3.7326    -2.1125 H       
  22 H22           -0.3604     5.1600    -1.2175 H       
  23 H23            0.6101     3.6680    -1.2302 H       
  24 H24           -3.0822     3.8000     0.9273 H       
  25 H25           -2.5166     5.2371     0.0425 H       
  26 H26           -3.0906     3.8097    -0.8526 H       
  27 H27            0.6219     3.6544     1.2682 H       
  28 H28           -0.3486     5.1465     1.2809 H       
  29 H29           -0.9141     3.7093     2.1658 H       
@<TRIPOS>BOND
   1    1    2 1
   2    1    8 2
   3    1    9 1
   4    2    3 ar
   5    2    7 ar
   6    3    4 ar
   7    3   13 1
   8    4    5 ar
   9    4   12 1
  10    5    6 ar
  11    5   10 1
  12    6    7 ar
  13    6   18 1
  14    7   19 1
  15    9   14 1
  16   10   11 2
  17   10   20 1
  18   14   15 1
  19   14   17 1
  20   14   16 1
  21   15   21 1
  22   15   22 1
  23   15   23 1
  24   16   24 1
  25   16   25 1
  26   16   26 1
  27   17   27 1
  28   17   28 1
  29   17   29 1

#	End of record

