#	Name: ASD01880883
#	Creating user name:	WinNT
#	Creation time:	15. 06. 2019 19:41

#	Modifying user name:	WinNT
#	Modification time:	15. 06. 2019 19:41

#	Program:	/corina/corina34_cracker 3.40 0067  02.08.2006

@<TRIPOS>MOLECULE
ASD01880883
  59   62    0    0    0
SMALL
NO_CHARGES


@<TRIPOS>ATOM
   1 N1             0.0003     1.3173    -0.2015 N.ar    
   2 C2             0.0238    -0.0049    -0.2232 C.ar    
   3 N3             1.1433    -0.6835    -0.0306 N.ar    
   4 C4             2.2898    -0.0577     0.1923 C.ar    
   5 C5             2.3106     1.3230     0.2229 C.ar    
   6 C6             1.1133     2.0111     0.0166 C.ar    
   7 C7             3.5955     2.0693     0.4740 C.3     
   8 O8             4.6354     1.1381     0.7797 O.3     
   9 C9             5.8661     1.6504     1.0338 C.ar    
  10 C10            6.9240     0.7993     1.3384 C.ar    
  11 C11            8.1685     1.3187     1.5948 C.ar    
  12 C12            8.3813     2.7006     1.5519 C.ar    
  13 C13            7.3155     3.5510     1.2451 C.ar    
  14 C14            6.0701     3.0242     0.9839 C.ar    
  15 C15            9.4957     0.6944     1.9472 C.3     
  16 N16           10.4442     1.8042     2.0947 N.am    
  17 C17            9.7971     2.9597     1.8658 C.2     
  18 O18           10.3078     4.0622     1.9110 O.2     
  19 C19            7.5296     5.0419     1.1958 C.3     
  20 N20            1.0857     3.3960     0.0379 N.3     
  21 C21           -0.1593     3.8886     0.6435 C.3     
  22 C22           -0.1162     5.4166     0.7206 C.3     
  23 N23            0.0633     5.9678    -0.6298 N.3     
  24 C24            1.3083     5.4751    -1.2354 C.3     
  25 C25            1.2652     3.9472    -1.3125 C.3     
  26 C26            0.0340     7.4363    -0.6072 C.3     
  27 O27           -1.1278    -0.6817    -0.4480 O.3     
  28 C28           -1.0497    -2.1085    -0.4618 C.3     
  29 C29           12.6852     1.5345     1.1532 C.3     
  30 C30           11.8630     1.6741     2.4359 C.3     
  31 H31            3.1979    -0.6210     0.3486 H       
  32 H32            3.8661     2.6367    -0.4165 H       
  33 H33            3.4610     2.7521     1.3129 H       
  34 H34            6.7660    -0.2686     1.3734 H       
  35 H35            5.2470     3.6818     0.7465 H       
  36 H36            9.4139     0.1443     2.8847 H       
  37 H37            9.8202     0.0279     1.1481 H       
  38 H38            7.8155     5.3347     0.1855 H       
  39 H39            6.6069     5.5509     1.4742 H       
  40 H40            8.3214     5.3184     1.8920 H       
  41 H41           -1.0078     3.5791     0.0333 H       
  42 H42           -0.2633     3.4767     1.6473 H       
  43 H43           -1.0507     5.7859     1.1429 H       
  44 H44            0.7161     5.7254     1.3530 H       
  45 H45            1.4123     5.8871    -2.2392 H       
  46 H46            2.1568     5.7846    -0.6252 H       
  47 H47            2.1997     3.5778    -1.7348 H       
  48 H48            0.4329     3.6383    -1.9449 H       
  49 H49            0.8369     7.8059     0.0307 H       
  50 H50            0.1691     7.8180    -1.6192 H       
  51 H51           -0.9256     7.7746    -0.2163 H       
  52 H52           -0.6859    -2.4618     0.5031 H       
  53 H53           -2.0390    -2.5248    -0.6517 H       
  54 H54           -0.3645    -2.4273    -1.2473 H       
  55 H55           12.3600     0.6486     0.6077 H       
  56 H56           12.5407     2.4177     0.5310 H       
  57 H57           13.7408     1.4377     1.4070 H       
  58 H58           12.1882     2.5600     2.9813 H       
  59 H59           12.0076     0.7909     3.0581 H       
@<TRIPOS>BOND
   1    1    2 ar
   2    1    6 ar
   3    2    3 ar
   4    2   27 1
   5    3    4 ar
   6    4    5 ar
   7    4   31 1
   8    5    6 ar
   9    5    7 1
  10    6   20 1
  11    7    8 1
  12    7   32 1
  13    7   33 1
  14    8    9 1
  15    9   10 ar
  16    9   14 ar
  17   10   11 ar
  18   10   34 1
  19   11   12 ar
  20   11   15 1
  21   12   13 ar
  22   12   17 1
  23   13   14 ar
  24   13   19 1
  25   14   35 1
  26   15   16 1
  27   15   36 1
  28   15   37 1
  29   16   17 am
  30   16   30 1
  31   17   18 2
  32   19   38 1
  33   19   39 1
  34   19   40 1
  35   20   21 1
  36   20   25 1
  37   21   22 1
  38   21   41 1
  39   21   42 1
  40   22   23 1
  41   22   43 1
  42   22   44 1
  43   23   24 1
  44   23   26 1
  45   24   25 1
  46   24   45 1
  47   24   46 1
  48   25   47 1
  49   25   48 1
  50   26   49 1
  51   26   50 1
  52   26   51 1
  53   27   28 1
  54   28   52 1
  55   28   53 1
  56   28   54 1
  57   29   30 1
  58   29   55 1
  59   29   56 1
  60   29   57 1
  61   30   58 1
  62   30   59 1

#	End of record

