#	Name: ASD01840177
#	Creating user name:	WinNT
#	Creation time:	15. 06. 2019 19:37

#	Modifying user name:	WinNT
#	Modification time:	15. 06. 2019 19:37

#	Program:	/corina/corina34_cracker 3.40 0067  02.08.2006

@<TRIPOS>MOLECULE
ASD01840177
  43   46    0    0    0
SMALL
NO_CHARGES


@<TRIPOS>ATOM
   1 C1            -1.7592     1.3980    -0.0747 C.3     
   2 C2            -1.8581    -0.1379    -0.0434 C.3     
   3 N3            -1.3070    -0.7886    -1.2347 N.am    
   4 C4            -1.7448    -2.0102    -1.5986 C.2     
   5 C5            -1.1947    -2.6597    -2.7876 C.2     
   6 O6            -2.5983    -2.5730    -0.9374 O.2     
   7 C7            -1.5684    -3.8841    -3.2351 C.2     
   8 C8            -0.8760    -4.3106    -4.4370 C.ar    
   9 C9             0.0449    -3.3555    -4.8883 C.ar    
  10 S10            0.0289    -1.9549    -3.8259 S.3     
  11 C11           -0.9963    -5.5043    -5.1845 C.ar    
  12 C12           -0.2047    -5.6510    -6.3023 C.ar    
  13 N13            0.6374    -4.6937    -6.6516 N.ar    
  14 N14            0.7596    -3.6052    -5.9879 N.ar    
  15 C15           -0.2986    -6.9072    -7.1295 C.3     
  16 C16           -1.9617    -6.5849    -4.7704 C.3     
  17 N17           -2.5281    -4.6605    -2.5999 N.pl3   
  18 C18           -0.8761    -0.0786     1.1405 C.3     
  19 N19           -0.4499     1.2284     0.5934 N.3     
  20 C20           -0.2831     2.1679     1.6138 C.ar    
  21 C21            0.8679     2.9437     1.6763 C.ar    
  22 C22           -1.2704     2.3444     2.5795 C.ar    
  23 C23           -1.0586     3.2896     3.5728 C.ar    
  24 C24            0.1180     4.0198     3.5705 C.ar    
  25 N25            1.0302     3.8309     2.6371 N.ar    
  26 F26           -1.9891     3.4954     4.5304 F       
  27 H27           -1.6887     1.8131    -1.0800 H       
  28 H28           -2.5054     1.8988     0.5422 H       
  29 H29           -2.8479    -0.5084     0.2235 H       
  30 H30           -0.6270    -0.3402    -1.7614 H       
  31 H31           -1.0538    -6.7763    -7.9046 H       
  32 H32            0.6667    -7.1099    -7.5933 H       
  33 H33           -0.5768    -7.7441    -6.4889 H       
  34 H34           -2.9524    -6.3572    -5.1637 H       
  35 H35           -1.6254    -7.5435    -5.1655 H       
  36 H36           -2.0055    -6.6356    -3.6825 H       
  37 H37           -2.7542    -4.4893    -1.6723 H       
  38 H38           -2.9726    -5.3741    -3.0837 H       
  39 H39           -1.3640    -0.0097     2.1128 H       
  40 H40           -0.1000    -0.8432     1.1060 H       
  41 H41            1.6381     2.8179     0.9297 H       
  42 H42           -2.1786     1.7604     2.5558 H       
  43 H43            0.2889     4.7571     4.3409 H       
@<TRIPOS>BOND
   1    1    2 1
   2    1   19 1
   3    1   27 1
   4    1   28 1
   5    2    3 1
   6    2   18 1
   7    2   29 1
   8    3    4 am
   9    3   30 1
  10    4    5 1
  11    4    6 2
  12    5    7 2
  13    5   10 1
  14    7    8 1
  15    7   17 1
  16    8    9 ar
  17    8   11 ar
  18    9   10 1
  19    9   14 ar
  20   11   12 ar
  21   11   16 1
  22   12   13 ar
  23   12   15 1
  24   13   14 ar
  25   15   31 1
  26   15   32 1
  27   15   33 1
  28   16   34 1
  29   16   35 1
  30   16   36 1
  31   17   37 1
  32   17   38 1
  33   18   19 1
  34   18   39 1
  35   18   40 1
  36   19   20 1
  37   20   22 ar
  38   20   21 ar
  39   21   25 ar
  40   21   41 1
  41   22   23 ar
  42   22   42 1
  43   23   24 ar
  44   23   26 1
  45   24   25 ar
  46   24   43 1

#	End of record

