#	Name: ASD01400001
#	Creating user name:	WinNT
#	Creation time:	15. 06. 2019 19:16

#	Modifying user name:	WinNT
#	Modification time:	15. 06. 2019 19:16

#	Program:	/corina/corina34_cracker 3.40 0067  02.08.2006

@<TRIPOS>MOLECULE
ASD01400001
   5    4    0    0    0
SMALL
NO_CHARGES


@<TRIPOS>ATOM
   1 C1            -0.0161     1.3386     0.0094 C.2     
   2 O2             0.0021    -0.0041     0.0020 O.3     
   3 O3             1.0338     1.9640     0.0027 O.co2   
   4 O4            -1.0827     1.9352     0.0177 O.co2   
   5 H5             0.8695    -0.4313    -0.0086 H       
@<TRIPOS>BOND
   1    1    2 1
   2    1    3 ar
   3    1    4 ar
   4    2    5 1

#	End of record

