#	Name: ASD01900148
#	Creating user name:	WinNT
#	Creation time:	15. 06. 2019 19:51

#	Modifying user name:	WinNT
#	Modification time:	15. 06. 2019 19:51

#	Program:	/corina/corina34_cracker 3.40 0067  02.08.2006

@<TRIPOS>MOLECULE
ASD01900148
  58   62    0    0    0
SMALL
NO_CHARGES


@<TRIPOS>ATOM
   1 C1             3.7454     0.5241     0.8666 C.ar    
   2 C2             4.3964    -0.6892     0.8077 C.ar    
   3 C3             5.7349    -0.7528     0.4418 C.ar    
   4 C4             6.4364     0.4019     0.1391 C.ar    
   5 C5             5.7973     1.6273     0.1998 C.ar    
   6 C6             4.4377     1.6930     0.5556 C.ar    
   7 N7             6.4649     2.8152    -0.0766 N.pl3   
   8 C8             5.7000     3.9494    -0.6075 C.3     
   9 N9             4.4339     4.0887     0.1126 N.am    
  10 C10            3.7850     3.0119     0.5988 C.2     
  11 C11            3.8866     5.3640     0.3009 C.ar    
  12 C12            4.4003     6.2024     1.2815 C.ar    
  13 C13            3.8605     7.4599     1.4663 C.ar    
  14 C14            2.8054     7.8857     0.6726 C.ar    
  15 C15            2.2914     7.0485    -0.3069 C.ar    
  16 C16            2.8339     5.7929    -0.4966 C.ar    
  17 O17            2.6690     3.1287     1.0683 O.2     
  18 O18            2.2744     9.1240     0.8552 O.3     
  19 C19            6.5212     5.2322    -0.4463 C.3     
  20 C20            5.4186     3.7183    -2.0948 C.3     
  21 C21            4.6812     4.9328    -2.6633 C.3     
  22 N22            5.5041     6.1355    -2.4833 N.3     
  23 C23            5.7510     6.4034    -1.0608 C.3     
  24 C24            4.8889     7.2973    -3.1388 C.3     
  25 C25            1.1989     9.5022    -0.0064 C.3     
  26 F26            0.1171     8.6372     0.1908 F       
  27 F27            0.8068    10.8132     0.2849 F       
  28 F28            1.6197     9.4264    -1.3385 F       
  29 C29            5.7050     8.5299    -2.8459 C.ar    
  30 C30            6.7507     8.8799    -3.6798 C.ar    
  31 C31            7.5005    10.0115    -3.4116 C.ar    
  32 C32            7.2018    10.7935    -2.3058 C.ar    
  33 C33            6.1546    10.4404    -1.4732 C.ar    
  34 C34            5.4037     9.3123    -1.7471 C.ar    
  35 F35            7.9328    11.8985    -2.0417 F       
  36 F36            8.5228    10.3539    -4.2257 F       
  37 F37            6.3571    -1.9505     0.3813 F       
  38 H38            2.7036     0.5685     1.1479 H       
  39 H39            3.8623    -1.5967     1.0479 H       
  40 H40            7.4775     0.3462    -0.1427 H       
  41 H41            7.4191     2.8929     0.0791 H       
  42 H42            5.2215     5.8709     1.8997 H       
  43 H43            4.2596     8.1119     2.2291 H       
  44 H44            1.4698     7.3805    -0.9241 H       
  45 H45            2.4366     5.1429    -1.2622 H       
  46 H46            6.6920     5.4245     0.6130 H       
  47 H47            7.4782     5.1184    -0.9555 H       
  48 H48            6.3603     3.5824    -2.6267 H       
  49 H49            4.8006     2.8284    -2.2144 H       
  50 H50            4.4917     4.7781    -3.7255 H       
  51 H51            3.7334     5.0598    -2.1402 H       
  52 H52            4.7992     6.5236    -0.5434 H       
  53 H53            6.3372     7.3167    -0.9596 H       
  54 H54            4.8550     7.1313    -4.2155 H       
  55 H55            3.8759     7.4338    -2.7602 H       
  56 H56            6.9826     8.2699    -4.5404 H       
  57 H57            5.9212    11.0484    -0.6116 H       
  58 H58            4.5837     9.0397    -1.0993 H       
@<TRIPOS>BOND
   1    1    2 ar
   2    1    6 ar
   3    1   38 1
   4    2    3 ar
   5    2   39 1
   6    3    4 ar
   7    3   37 1
   8    4    5 ar
   9    4   40 1
  10    5    7 1
  11    5    6 ar
  12    6   10 1
  13    7    8 1
  14    7   41 1
  15    8    9 1
  16    8   20 1
  17    8   19 1
  18    9   10 am
  19    9   11 1
  20   10   17 2
  21   11   12 ar
  22   11   16 ar
  23   12   13 ar
  24   12   42 1
  25   13   14 ar
  26   13   43 1
  27   14   15 ar
  28   14   18 1
  29   15   16 ar
  30   15   44 1
  31   16   45 1
  32   18   25 1
  33   19   23 1
  34   19   46 1
  35   19   47 1
  36   20   21 1
  37   20   48 1
  38   20   49 1
  39   21   22 1
  40   21   50 1
  41   21   51 1
  42   22   23 1
  43   22   24 1
  44   23   52 1
  45   23   53 1
  46   24   29 1
  47   24   54 1
  48   24   55 1
  49   25   26 1
  50   25   27 1
  51   25   28 1
  52   29   30 ar
  53   29   34 ar
  54   30   31 ar
  55   30   56 1
  56   31   32 ar
  57   31   36 1
  58   32   33 ar
  59   32   35 1
  60   33   34 ar
  61   33   57 1
  62   34   58 1

#	End of record

