#	Name: ASD03092772
#	Creating user name:	WinNT
#	Creation time:	15. 06. 2019 20:33

#	Modifying user name:	WinNT
#	Modification time:	15. 06. 2019 20:33

#	Program:	/corina/corina34_cracker 3.40 0067  02.08.2006

@<TRIPOS>MOLECULE
ASD03092772
  51   54    0    0    0
SMALL
NO_CHARGES


@<TRIPOS>ATOM
   1 N1            -0.3268     1.3719     0.3731 N.am    
   2 S2            -0.2719    -0.2734     0.5536 S.o2    
   3 O3            -0.6054    -0.5397     1.9090 O.2     
   4 O4            -0.9872    -0.8217    -0.5449 O.2     
   5 C5             1.4078    -0.7647     0.3488 C.ar    
   6 C6             1.8852    -1.0871    -0.9078 C.ar    
   7 C7             3.2030    -1.4726    -1.0686 C.ar    
   8 C8             4.0434    -1.5353     0.0272 C.ar    
   9 C9             3.5661    -1.2121     1.2837 C.ar    
  10 C10            2.2495    -0.8224     1.4438 C.ar    
  11 C11            5.4797    -1.9566    -0.1479 C.3     
  12 H12            5.6821    -2.5897    -1.0117 H       
  13 C13            6.3035    -2.2037     1.1186 C.3     
  14 H14            5.8066    -2.0616     2.0782 H       
  15 C15            7.3326    -3.3038     1.0759 C.2     
  16 O16            8.3214    -3.1828     0.3841 O.2     
  17 N17            7.1540    -4.4222     1.8066 N.am    
  18 C18            8.0583    -5.4839     1.6930 C.ar    
  19 C19            7.6065    -6.7945     1.7750 C.ar    
  20 C20            8.5017    -7.8403     1.6625 C.ar    
  21 C21            9.8466    -7.5834     1.4688 C.ar    
  22 C22           10.2997    -6.2794     1.3872 C.ar    
  23 C23            9.4087    -5.2293     1.4923 C.ar    
  24 C24           10.8206    -8.7268     1.3470 C.3     
  25 F25           10.9374    -9.0987     0.0034 F       
  26 F26           12.0711    -8.3278     1.8309 F       
  27 F27           10.3574    -9.8155     2.0936 F       
  28 C28            6.5609    -0.9632     0.2666 C.3     
  29 C29            7.8570    -0.8233    -0.5509 C.3     
  30 C30            7.8666     0.6630    -0.9901 C.3     
  31 C31            7.2904     1.3915     0.2499 C.3     
  32 C32            6.1957     0.4381     0.7752 C.3     
  33 H33            0.4868     1.8671     0.1896 H       
  34 H34           -1.1732     1.8399     0.4469 H       
  35 H35            1.2287    -1.0381    -1.7639 H       
  36 H36            3.5758    -1.7252    -2.0502 H       
  37 H37            4.2226    -1.2614     2.1398 H       
  38 H38            1.8777    -0.5662     2.4248 H       
  39 H39            6.3986    -4.4911     2.4112 H       
  40 H40            6.5564    -6.9958     1.9269 H       
  41 H41            8.1510    -8.8598     1.7261 H       
  42 H42           11.3507    -6.0820     1.2367 H       
  43 H43            9.7625    -4.2113     1.4236 H       
  44 H44            8.7256    -1.0439     0.0695 H       
  45 H45            7.8320    -1.4786    -1.4216 H       
  46 H46            8.8831     0.9979    -1.1968 H       
  47 H47            7.2254     0.8131    -1.8586 H       
  48 H48            8.0655     1.5340     1.0029 H       
  49 H49            6.8563     2.3490    -0.0379 H       
  50 H50            5.2222     0.7355     0.3855 H       
  51 H51            6.1820     0.4486     1.8651 H       
@<TRIPOS>BOND
   1    1    2 am
   2    1   33 1
   3    1   34 1
   4    2    3 2
   5    2    4 2
   6    2    5 1
   7    5   10 ar
   8    5    6 ar
   9    6    7 ar
  10    6   35 1
  11    7    8 ar
  12    7   36 1
  13    8    9 ar
  14    8   11 1
  15    9   10 ar
  16    9   37 1
  17   10   38 1
  18   11   12 1
  19   11   28 1
  20   11   13 1
  21   13   14 1
  22   13   15 1
  23   13   28 1
  24   15   16 2
  25   15   17 am
  26   17   18 1
  27   17   39 1
  28   18   23 ar
  29   18   19 ar
  30   19   20 ar
  31   19   40 1
  32   20   21 ar
  33   20   41 1
  34   21   22 ar
  35   21   24 1
  36   22   23 ar
  37   22   42 1
  38   23   43 1
  39   24   25 1
  40   24   26 1
  41   24   27 1
  42   28   32 1
  43   28   29 1
  44   29   30 1
  45   29   44 1
  46   29   45 1
  47   30   31 1
  48   30   46 1
  49   30   47 1
  50   31   32 1
  51   31   48 1
  52   31   49 1
  53   32   50 1
  54   32   51 1

#	End of record

