#	Name: ASD03240633
#	Creating user name:	WinNT
#	Creation time:	15. 06. 2019 20:35

#	Modifying user name:	WinNT
#	Modification time:	15. 06. 2019 20:35

#	Program:	/corina/corina34_cracker 3.40 0067  02.08.2006

@<TRIPOS>MOLECULE
ASD03240633
  68   74    0    0    0
SMALL
NO_CHARGES


@<TRIPOS>ATOM
   1 C1             0.0870     1.0804    -0.5259 C.ar    
   2 C2             0.1863    -0.2894    -0.3938 C.ar    
   3 N3             1.3504    -0.8677    -0.1672 N.ar    
   4 C4             2.4710    -0.1671    -0.0554 C.ar    
   5 C5             2.4465     1.2195    -0.1917 C.ar    
   6 C6             1.2344     1.8561    -0.4246 C.ar    
   7 N7             3.6621    -0.8332     0.2196 N.pl3   
   8 C8             4.3564    -0.5878     1.4012 C.ar    
   9 C9             4.8671     0.6857     1.6745 C.ar    
  10 C10            4.6992     1.7804     0.6936 C.2     
  11 N11            3.6201     1.9831    -0.1168 N.pl3   
  12 C12            4.5431    -1.6124     2.3194 C.ar    
  13 C13            5.2202    -1.3692     3.4992 C.ar    
  14 C14            5.7158    -0.1067     3.7760 C.ar    
  15 C15            5.5432     0.9214     2.8713 C.ar    
  16 N16            5.5883     2.7262     0.4654 N.2     
  17 C17            5.1327     3.5568    -0.4848 C.2     
  18 C18            3.8833     3.1072    -0.8746 C.2     
  19 C19            3.0066     3.7092    -1.8974 C.ar    
  20 C20            2.8096     5.0921    -1.9272 C.ar    
  21 C21            2.3739     2.8996    -2.8441 C.ar    
  22 C22            1.5557     3.4692    -3.7972 C.ar    
  23 C23            1.3607     4.8391    -3.8171 C.ar    
  24 C24            1.9886     5.6478    -2.8861 C.ar    
  25 C25            5.8399     4.7432    -1.0201 C.ar    
  26 C26            0.4656     5.4539    -4.8620 C.3     
  27 C27            6.6401     5.5178    -0.1799 C.ar    
  28 N28           -0.4440     4.4793    -5.4790 N.3     
  29 C29           -0.2354     6.7399    -4.3932 C.3     
  30 C30            0.0312     7.3040    -5.7988 C.3     
  31 C31            1.2170     6.3282    -5.8797 C.3     
  32 C32            7.2975     6.6211    -0.6809 C.ar    
  33 C33            7.1635     6.9621    -2.0215 C.ar    
  34 C34            6.3667     6.1925    -2.8607 C.ar    
  35 C35            5.7118     5.0846    -2.3667 C.ar    
  36 N36            7.8315     8.0826    -2.5271 N.am    
  37 C37            9.0573     8.4012    -2.0661 C.2     
  38 O38            9.7394     9.4228    -2.6175 O.3     
  39 O39            9.5468     7.7665    -1.1528 O.2     
  40 C40           11.0536     9.7094    -2.0706 C.3     
  41 H41           -0.8711     1.5435    -0.7103 H       
  42 H42           -0.7024    -0.8975    -0.4769 H       
  43 H43            1.1852     2.9304    -0.5244 H       
  44 H44            4.0117    -1.4749    -0.4183 H       
  45 H45            4.1587    -2.6000     2.1116 H       
  46 H46            5.3633    -2.1694     4.2103 H       
  47 H47            6.2391     0.0746     4.7032 H       
  48 H48            5.9304     1.9056     3.0897 H       
  49 H49            3.2987     5.7243    -1.2010 H       
  50 H50            2.5255     1.8304    -2.8299 H       
  51 H51            1.0663     2.8447    -4.5299 H       
  52 H52            1.8319     6.7161    -2.9076 H       
  53 H53            6.7441     5.2537     0.8621 H       
  54 H54            0.0596     3.6636    -5.7938 H       
  55 H55           -1.1852     4.2239    -4.8438 H       
  56 H56           -1.2938     6.6040    -4.1708 H       
  57 H57            0.3001     7.2658    -3.6028 H       
  58 H58           -0.7623     7.0872    -6.5140 H       
  59 H59            0.3279     8.3528    -5.7993 H       
  60 H60            2.1496     6.7417    -5.4958 H       
  61 H61            1.3313     5.8600    -6.8574 H       
  62 H62            7.9171     7.2211    -0.0310 H       
  63 H63            6.2641     6.4601    -3.9020 H       
  64 H64            5.0931     4.4867    -3.0194 H       
  65 H65            7.4125     8.6302    -3.2094 H       
  66 H66           10.9611     9.9560    -1.0130 H       
  67 H67           11.6935     8.8344    -2.1851 H       
  68 H68           11.4928    10.5528    -2.6034 H       
@<TRIPOS>BOND
   1    1    2 ar
   2    1    6 ar
   3    1   41 1
   4    2    3 ar
   5    2   42 1
   6    3    4 ar
   7    4    5 ar
   8    4    7 1
   9    5    6 ar
  10    5   11 1
  11    6   43 1
  12    7    8 1
  13    7   44 1
  14    8    9 ar
  15    8   12 ar
  16    9   10 1
  17    9   15 ar
  18   10   11 1
  19   10   16 2
  20   11   18 1
  21   12   13 ar
  22   12   45 1
  23   13   14 ar
  24   13   46 1
  25   14   15 ar
  26   14   47 1
  27   15   48 1
  28   16   17 1
  29   17   18 2
  30   17   25 1
  31   18   19 1
  32   19   20 ar
  33   19   21 ar
  34   20   24 ar
  35   20   49 1
  36   21   22 ar
  37   21   50 1
  38   22   23 ar
  39   22   51 1
  40   23   24 ar
  41   23   26 1
  42   24   52 1
  43   25   27 ar
  44   25   35 ar
  45   26   29 1
  46   26   28 1
  47   26   31 1
  48   27   32 ar
  49   27   53 1
  50   28   54 1
  51   28   55 1
  52   29   30 1
  53   29   56 1
  54   29   57 1
  55   30   31 1
  56   30   58 1
  57   30   59 1
  58   31   60 1
  59   31   61 1
  60   32   33 ar
  61   32   62 1
  62   33   34 ar
  63   33   36 1
  64   34   35 ar
  65   34   63 1
  66   35   64 1
  67   36   37 am
  68   36   65 1
  69   37   38 1
  70   37   39 2
  71   38   40 1
  72   40   66 1
  73   40   67 1
  74   40   68 1

#	End of record

