#	Name: ASD01150802
#	Creating user name:	WinNT
#	Creation time:	15. 06. 2019 19:05

#	Modifying user name:	WinNT
#	Modification time:	15. 06. 2019 19:05

#	Program:	/corina/corina34_cracker 3.40 0067  02.08.2006

@<TRIPOS>MOLECULE
ASD01150802
  48   49    0    0    0
SMALL
NO_CHARGES


@<TRIPOS>ATOM
   1 C1             0.6023     1.9357     1.9219 C.3     
   2 N2            -0.2996     0.8307     2.2807 N.pl3   
   3 C3            -0.3068    -0.3050     1.4763 C.2     
   4 C4             0.2742    -0.2950     0.2971 C.2     
   5 C5             0.9755     0.9215    -0.2386 C.3     
   6 N6             0.5179     2.1279     0.4631 N.3     
   7 O7            -1.1397     0.9200     3.4171 O.3     
   8 C8             1.2881     3.3057     0.0418 C.3     
   9 C9             4.4627     1.9785     1.3457 C.ar    
  10 N10            3.1777     2.2201     1.1792 N.ar    
  11 C11            2.7593     3.0358     0.2250 C.ar    
  12 C12            3.6926     3.6383    -0.6041 C.ar    
  13 C13            5.0344     3.3597    -0.3981 C.ar    
  14 N14            5.3780     2.5332     0.5768 N.ar    
  15 C15            6.0880     3.9889    -1.2728 C.3     
  16 S16            0.9505     3.6555    -1.7059 S.3     
  17 C17           -0.7662     5.6673    -1.0076 C.3     
  18 C18           -0.7485     4.2902    -1.6742 C.3     
  19 C19           -1.2751     4.4098    -3.1058 C.3     
  20 C20           -1.3750     3.0167    -3.7304 C.3     
  21 C21           -1.9015     3.1363    -5.1620 C.3     
  22 C22           -2.0014     1.7432    -5.7867 C.3     
  23 H23            0.2917     2.8470     2.4330 H       
  24 H24            1.6249     1.6840     2.2028 H       
  25 H25           -0.7942    -1.2037     1.8245 H       
  26 H26            0.2471    -1.1903    -0.3063 H       
  27 H27            2.0505     0.8087    -0.0986 H       
  28 H28            0.7621     1.0210    -1.3029 H       
  29 H29           -1.6911     0.1388     3.5609 H       
  30 H30            0.9982     4.1648     0.6468 H       
  31 H31            4.7741     1.3117     2.1361 H       
  32 H32            3.3815     4.3084    -1.3919 H       
  33 H33            6.4072     4.9344    -0.8342 H       
  34 H34            6.9433     3.3178    -1.3513 H       
  35 H35            5.6757     4.1697    -2.2654 H       
  36 H36           -1.7977     5.9944    -0.8768 H       
  37 H37           -0.2782     5.6063    -0.0349 H       
  38 H38           -0.2353     6.3821    -1.6363 H       
  39 H39           -1.3818     3.6054    -1.1102 H       
  40 H40           -2.2613     4.8737    -3.0926 H       
  41 H41           -0.5927     5.0236    -3.6938 H       
  42 H42           -0.3887     2.5528    -3.7436 H       
  43 H43           -2.0573     2.4029    -3.1424 H       
  44 H44           -2.8878     3.6001    -5.1488 H       
  45 H45           -1.2191     3.7500    -5.7500 H       
  46 H46           -1.0151     1.2793    -5.7998 H       
  47 H47           -2.6838     1.1294    -5.1987 H       
  48 H48           -2.3765     1.8283    -6.8066 H       
@<TRIPOS>BOND
   1    1    2 1
   2    1    6 1
   3    1   23 1
   4    1   24 1
   5    2    3 1
   6    2    7 1
   7    3    4 2
   8    3   25 1
   9    4    5 1
  10    4   26 1
  11    5    6 1
  12    5   27 1
  13    5   28 1
  14    6    8 1
  15    7   29 1
  16    8   11 1
  17    8   16 1
  18    8   30 1
  19    9   10 ar
  20    9   14 ar
  21    9   31 1
  22   10   11 ar
  23   11   12 ar
  24   12   13 ar
  25   12   32 1
  26   13   14 ar
  27   13   15 1
  28   15   33 1
  29   15   34 1
  30   15   35 1
  31   16   18 1
  32   17   18 1
  33   17   36 1
  34   17   37 1
  35   17   38 1
  36   18   19 1
  37   18   39 1
  38   19   20 1
  39   19   40 1
  40   19   41 1
  41   20   21 1
  42   20   42 1
  43   20   43 1
  44   21   22 1
  45   21   44 1
  46   21   45 1
  47   22   46 1
  48   22   47 1
  49   22   48 1

#	End of record

