#	Name: ASD01884448
#	Creating user name:	WinNT
#	Creation time:	15. 06. 2019 19:48

#	Modifying user name:	WinNT
#	Modification time:	15. 06. 2019 19:48

#	Program:	/corina/corina34_cracker 3.40 0067  02.08.2006

@<TRIPOS>MOLECULE
ASD01884448
  42   44    0    0    0
SMALL
NO_CHARGES


@<TRIPOS>ATOM
   1 C1            -0.0164     1.3576     0.0095 C.2     
   2 C2             0.0021    -0.0041     0.0020 C.2     
   3 C3             1.2440    -0.6751    -0.0134 C.2     
   4 C4             2.4025     0.0466    -0.0206 C.2     
   5 N5             2.3700     1.4025    -0.0130 N.am    
   6 C6             1.1986     2.0652     0.0017 C.2     
   7 C7             1.2898    -2.1581    -0.0214 C.ar    
   8 C8             3.6265     2.1557    -0.0205 C.3     
   9 O9             1.1910     3.2857     0.0083 O.2     
  10 C10            4.0444     2.4216    -1.4438 C.ar    
  11 C11            3.6204     3.5705    -2.0852 C.ar    
  12 C12            4.0033     3.8149    -3.3905 C.ar    
  13 C13            4.8110     2.9095    -4.0553 C.ar    
  14 C14            5.2350     1.7598    -3.4129 C.ar    
  15 C15            4.8561     1.5193    -2.1056 C.ar    
  16 C16            0.9874    -2.8635    -1.1896 C.ar    
  17 C17            1.6398    -2.8533     1.1337 C.ar    
  18 C18            1.6809    -4.2329     1.1213 C.ar    
  19 C19            1.3759    -4.9287    -0.0352 C.ar    
  20 C20            1.0325    -4.2483    -1.1882 C.ar    
  21 Cl21           5.2919     3.2155    -5.6951 Cl      
  22 O22            0.6499    -2.1936    -2.3225 O.3     
  23 C23            0.3538    -2.9807    -3.4779 C.3     
  24 C24           -0.0016    -2.0585    -4.6458 C.3     
  25 H25           -0.9563     1.8894     0.0169 H       
  26 H26           -0.9217    -0.5635     0.0082 H       
  27 H27            3.3529    -0.4663    -0.0321 H       
  28 H28            3.4854     3.1030     0.4997 H       
  29 H29            4.4004     1.5764     0.4832 H       
  30 H30            2.9896     4.2770    -1.5663 H       
  31 H31            3.6717     4.7123    -3.8916 H       
  32 H32            5.8656     1.0527    -3.9313 H       
  33 H33            5.1870     0.6219    -1.6040 H       
  34 H34            1.8791    -2.3134     2.0379 H       
  35 H35            1.9524    -4.7712     2.0174 H       
  36 H36            1.4108    -6.0081    -0.0381 H       
  37 H37            0.7955    -4.7967    -2.0879 H       
  38 H38            1.2244    -3.5814    -3.7412 H       
  39 H39           -0.4894    -3.6374    -3.2638 H       
  40 H40           -0.8722    -1.4578    -4.3825 H       
  41 H41            0.8416    -1.4019    -4.8599 H       
  42 H42           -0.2275    -2.6589    -5.5271 H       
@<TRIPOS>BOND
   1    1    2 2
   2    1    6 1
   3    1   25 1
   4    2    3 1
   5    2   26 1
   6    3    4 2
   7    3    7 1
   8    4    5 1
   9    4   27 1
  10    5    6 am
  11    5    8 1
  12    6    9 2
  13    7   16 ar
  14    7   17 ar
  15    8   10 1
  16    8   28 1
  17    8   29 1
  18   10   11 ar
  19   10   15 ar
  20   11   12 ar
  21   11   30 1
  22   12   13 ar
  23   12   31 1
  24   13   14 ar
  25   13   21 1
  26   14   15 ar
  27   14   32 1
  28   15   33 1
  29   16   22 1
  30   16   20 ar
  31   17   18 ar
  32   17   34 1
  33   18   19 ar
  34   18   35 1
  35   19   20 ar
  36   19   36 1
  37   20   37 1
  38   22   23 1
  39   23   24 1
  40   23   38 1
  41   23   39 1
  42   24   40 1
  43   24   41 1
  44   24   42 1

#	End of record

