#	Name: ASD01918515
#	Creating user name:	WinNT
#	Creation time:	15. 06. 2019 20:11

#	Modifying user name:	WinNT
#	Modification time:	15. 06. 2019 20:11

#	Program:	/corina/corina34_cracker 3.40 0067  02.08.2006

@<TRIPOS>MOLECULE
ASD01918515
  38   40    0    0    0
SMALL
NO_CHARGES


@<TRIPOS>ATOM
   1 C1            -0.0187     1.5258     0.0104 C.3     
   2 C2             0.0021    -0.0041     0.0020 C.3     
   3 C3            -1.4306    -0.5411    -0.0062 C.3     
   4 C4             0.7524    -0.5058    -1.2369 C.3     
   5 C5             2.1614     0.0877    -1.2900 C.3     
   6 N6             2.8584    -0.1743    -0.0259 N.pl3   
   7 N7             4.1196    -0.1870     0.1958 N.2     
   8 C8             4.3768    -0.4610     1.4529 C.2     
   9 C9             5.7456    -0.5599     2.0755 C.3     
  10 O10            5.6160    -0.8740     3.4635 O.3     
  11 C11            6.7654    -0.9998     4.1776 C.ar    
  12 C12            7.9926    -0.8189     3.5564 C.ar    
  13 C13            9.1596    -0.9469     4.2845 C.ar    
  14 C14            9.1052    -1.2555     5.6312 C.ar    
  15 C15            7.8834    -1.4367     6.2525 C.ar    
  16 C16            6.7134    -1.3037     5.5302 C.ar    
  17 C17            3.1574    -0.6443     2.1144 C.2     
  18 C18            2.2003    -0.4561     1.1495 C.2     
  19 C19            0.7370    -0.5160     1.2328 C.2     
  20 O20            0.1561    -0.9413     2.2097 O.2     
  21 H21            1.0039     1.9031     0.0027 H       
  22 H22           -0.5459     1.8868    -0.8726 H       
  23 H23           -0.5289     1.8773     0.9072 H       
  24 H24           -1.9479    -0.1825    -0.8961 H       
  25 H25           -1.4101    -1.6309    -0.0122 H       
  26 H26           -1.9544    -0.1924     0.8838 H       
  27 H27            0.8216    -1.5930    -1.1994 H       
  28 H28            0.2047    -0.2119    -2.1323 H       
  29 H29            2.7158    -0.3675    -2.1107 H       
  30 H30            2.0956     1.1637    -1.4512 H       
  31 H31            6.3156    -1.3441     1.5772 H       
  32 H32            6.2645     0.3923     1.9654 H       
  33 H33            8.0356    -0.5786     2.5043 H       
  34 H34           10.1152    -0.8062     3.8014 H       
  35 H35           10.0186    -1.3554     6.1987 H       
  36 H36            7.8435    -1.6780     7.3045 H       
  37 H37            5.7591    -1.4410     6.0169 H       
  38 H38            3.0033    -0.8820     3.1566 H       
@<TRIPOS>BOND
   1    1    2 1
   2    1   21 1
   3    1   22 1
   4    1   23 1
   5    2   19 1
   6    2    3 1
   7    2    4 1
   8    3   24 1
   9    3   25 1
  10    3   26 1
  11    4    5 1
  12    4   27 1
  13    4   28 1
  14    5    6 1
  15    5   29 1
  16    5   30 1
  17    6   18 1
  18    6    7 1
  19    7    8 2
  20    8    9 1
  21    8   17 1
  22    9   10 1
  23    9   31 1
  24    9   32 1
  25   10   11 1
  26   11   16 ar
  27   11   12 ar
  28   12   13 ar
  29   12   33 1
  30   13   14 ar
  31   13   34 1
  32   14   15 ar
  33   14   35 1
  34   15   16 ar
  35   15   36 1
  36   16   37 1
  37   17   18 2
  38   17   38 1
  39   18   19 1
  40   19   20 2

#	End of record

