#	Name: ASD01914662
#	Creating user name:	WinNT
#	Creation time:	15. 06. 2019 20:04

#	Modifying user name:	WinNT
#	Modification time:	15. 06. 2019 20:04

#	Program:	/corina/corina34_cracker 3.40 0067  02.08.2006

@<TRIPOS>MOLECULE
ASD01914662
  36   38    0    0    0
SMALL
NO_CHARGES


@<TRIPOS>ATOM
   1 N1            -0.0158     1.3157     0.0093 N.ar    
   2 C2             7.1867    -1.2915    -0.0721 C.2     
   3 N3             8.1073    -2.3014    -0.0854 N.pl3   
   4 C4             5.9569    -1.8823    -0.0636 C.2     
   5 N5             6.1460    -3.2257    -0.0717 N.2     
   6 C6             7.4243    -3.4770    -0.0846 C.2     
   7 C7             4.6945    -1.2064    -0.0484 C.1     
   8 C8             3.6596    -0.6523    -0.0359 C.1     
   9 C9             2.3972     0.0236    -0.0207 C.ar    
  10 C10            1.1940    -0.6962    -0.0131 C.ar    
  11 C11            0.0021    -0.0041     0.0020 C.ar    
  12 C12            1.0927     2.0325     0.0025 C.ar    
  13 C13            2.3292     1.4245    -0.0125 C.ar    
  14 C14            9.5018    -2.1523    -0.0979 C.ar    
  15 C15            8.0459    -4.8498    -0.0964 C.3     
  16 C16            1.0047     3.5369     0.0110 C.3     
  17 C17           10.1016    -1.3060    -1.0199 C.ar    
  18 C18           11.4771    -1.1601    -1.0302 C.ar    
  19 C19           12.2552    -1.8591    -0.1198 C.ar    
  20 C20           11.6568    -2.7035     0.7996 C.ar    
  21 C21           10.2831    -2.8467     0.8158 C.ar    
  22 F22           12.0624    -0.3370    -1.9275 F       
  23 F23           13.5986    -1.7162    -0.1303 F       
  24 H24            7.3927    -0.2314    -0.0651 H       
  25 H25            1.2009    -1.7762    -0.0193 H       
  26 H26           -0.9302    -0.5492     0.0084 H       
  27 H27            3.2319     2.0174    -0.0176 H       
  28 H28            8.1858    -5.1765    -1.1268 H       
  29 H29            9.0114    -4.8158     0.4083 H       
  30 H30            7.3900    -5.5501     0.4209 H       
  31 H31            0.9735     3.9048    -1.0146 H       
  32 H32            0.1001     3.8450     0.5352 H       
  33 H33            1.8769     3.9491     0.5184 H       
  34 H34            9.4951    -0.7621    -1.7290 H       
  35 H35           12.2643    -3.2475     1.5077 H       
  36 H36            9.8173    -3.5056     1.5337 H       
@<TRIPOS>BOND
   1    1   11 ar
   2    1   12 ar
   3    2    3 1
   4    2    4 2
   5    2   24 1
   6    3   14 1
   7    3    6 1
   8    4    5 1
   9    4    7 1
  10    5    6 2
  11    6   15 1
  12    7    8 3
  13    8    9 1
  14    9   10 ar
  15    9   13 ar
  16   10   11 ar
  17   10   25 1
  18   11   26 1
  19   12   13 ar
  20   12   16 1
  21   13   27 1
  22   14   17 ar
  23   14   21 ar
  24   15   28 1
  25   15   29 1
  26   15   30 1
  27   16   31 1
  28   16   32 1
  29   16   33 1
  30   17   18 ar
  31   17   34 1
  32   18   19 ar
  33   18   22 1
  34   19   20 ar
  35   19   23 1
  36   20   21 ar
  37   20   35 1
  38   21   36 1

#	End of record

