#	Name: ASD01918146
#	Creating user name:	WinNT
#	Creation time:	15. 06. 2019 20:10

#	Modifying user name:	WinNT
#	Modification time:	15. 06. 2019 20:10

#	Program:	/corina/corina34_cracker 3.40 0067  02.08.2006

@<TRIPOS>MOLECULE
ASD01918146
  36   38    0    0    0
SMALL
NO_CHARGES


@<TRIPOS>ATOM
   1 C1            -0.0509     1.5110    -0.4615 C.ar    
   2 C2            -0.0807     0.2939    -1.1373 C.ar    
   3 C3             1.1001    -0.2418    -1.6186 C.ar    
   4 N4             2.2465     0.3813    -1.4463 N.ar    
   5 C5             2.3220     1.5437    -0.8081 C.ar    
   6 C6             1.1772     2.1459    -0.2956 C.ar    
   7 O7            -1.1919     2.0676     0.0190 O.3     
   8 C8            -2.3431     1.3527    -0.0840 C.ar    
   9 N9            -3.8530    -0.2103     0.7811 N.ar    
  10 C10           -2.7250     0.4668     0.9183 C.ar    
  11 C11           -3.1730     1.4921    -1.1918 C.ar    
  12 N12           -4.2852     0.7788    -1.2546 N.ar    
  13 C13           -4.6100    -0.0542    -0.2864 C.ar    
  14 C14            3.6368     2.2048    -0.6403 C.2     
  15 N15            4.7496     1.6268    -1.1343 N.am    
  16 O16            3.7121     3.2684    -0.0573 O.2     
  17 C17            5.9824     2.2467    -0.9771 C.2     
  18 N18            7.1095     1.7805    -1.4167 N.2     
  19 S19            6.2337     3.7393    -0.1820 S.3     
  20 C20            7.9620     3.6330    -0.5062 C.2     
  21 C21            8.1883     2.5022    -1.1778 C.2     
  22 C22            9.5642     2.0841    -1.6286 C.3     
  23 C23            1.0737    -1.5587    -2.3507 C.3     
  24 H24           -1.0157    -0.2263    -1.2837 H       
  25 H25            1.2402     3.0913     0.2227 H       
  26 H26           -2.1093     0.3337     1.7956 H       
  27 H27           -2.9131     2.1731    -1.9888 H       
  28 H28           -5.5251    -0.6221    -0.3680 H       
  29 H29            4.6895     0.7779    -1.5997 H       
  30 H30            8.7077     4.3582    -0.2155 H       
  31 H31            9.7576     2.4841    -2.6239 H       
  32 H32           10.3079     2.4697    -0.9312 H       
  33 H33            9.6223     0.9960    -1.6567 H       
  34 H34            0.9304    -1.3793    -3.4163 H       
  35 H35            2.0177    -2.0807    -2.1939 H       
  36 H36            0.2538    -2.1689    -1.9716 H       
@<TRIPOS>BOND
   1    1    2 ar
   2    1    6 ar
   3    1    7 1
   4    2    3 ar
   5    2   24 1
   6    3    4 ar
   7    3   23 1
   8    4    5 ar
   9    5    6 ar
  10    5   14 1
  11    6   25 1
  12    7    8 1
  13    8   11 ar
  14    8   10 ar
  15    9   10 ar
  16    9   13 ar
  17   10   26 1
  18   11   12 ar
  19   11   27 1
  20   12   13 ar
  21   13   28 1
  22   14   15 am
  23   14   16 2
  24   15   17 1
  25   15   29 1
  26   17   19 1
  27   17   18 2
  28   18   21 1
  29   19   20 1
  30   20   21 2
  31   20   30 1
  32   21   22 1
  33   22   31 1
  34   22   32 1
  35   22   33 1
  36   23   34 1
  37   23   35 1
  38   23   36 1

#	End of record

