#	Name: ASD05380052
#	Creating user name:	WinNT
#	Creation time:	15. 06. 2019 20:59

#	Modifying user name:	WinNT
#	Modification time:	15. 06. 2019 20:59

#	Program:	/corina/corina34_cracker 3.40 0067  02.08.2006

@<TRIPOS>MOLECULE
ASD05380052
  46   50    0    0    0
SMALL
NO_CHARGES


@<TRIPOS>ATOM
   1 C1            -0.1179     1.2647     0.6493 C.ar    
   2 C2             0.0247     0.0640    -0.0816 C.ar    
   3 C3             0.9934     1.8538     1.2483 C.ar    
   4 C4             2.2307     1.2557     1.1216 C.ar    
   5 C5             2.3734     0.0743     0.4024 C.ar    
   6 C6             1.2864    -0.5227    -0.1955 C.ar    
   7 N7            -1.0720    -0.4910    -0.6562 N.2     
   8 C8            -2.2455     0.0539    -0.5503 C.2     
   9 N9            -2.4751     1.2081     0.1334 N.am    
  10 C10           -1.4610     1.8532     0.7555 C.2     
  11 C11           -3.7734     1.7294     0.1989 C.ar    
  12 C12           -4.6588     1.2721     1.1659 C.ar    
  13 C13           -4.1760     2.7089    -0.6993 C.ar    
  14 C14           -5.4567     3.2214    -0.6317 C.ar    
  15 C15           -6.3376     2.7604     0.3293 C.ar    
  16 C16           -5.9382     1.7885     1.2283 C.ar    
  17 C17           -3.4127    -0.6258    -1.2187 C.3     
  18 N18           -3.7894     0.1212    -2.4213 N.pl3   
  19 C19           -5.0814     0.0389    -2.9106 C.ar    
  20 N20           -5.9925    -0.7131    -2.3017 N.ar    
  21 O21           -1.6517     2.8863     1.3706 O.2     
  22 C22           -5.4618     0.7529    -4.0594 C.ar    
  23 C23           -6.7877     0.6294    -4.5085 C.ar    
  24 N24           -7.6270    -0.1516    -3.8366 N.ar    
  25 C25           -7.2275    -0.7977    -2.7614 C.ar    
  26 N26           -4.8289     1.5955    -4.9106 N.2     
  27 C27           -5.6613     1.9874    -5.8310 C.2     
  28 N28           -6.8832     1.4188    -5.6265 N.pl3   
  29 C29           -3.0182    -2.0522    -1.6070 C.3     
  30 F30            3.3117     1.8227     1.7006 F       
  31 H31            0.8875     2.7718     1.8073 H       
  32 H32            3.3486    -0.3810     0.3124 H       
  33 H33            1.4095    -1.4403    -0.7516 H       
  34 H34           -4.3475     0.5130     1.8683 H       
  35 H35           -3.4882     3.0699    -1.4497 H       
  36 H36           -5.7704     3.9832    -1.3300 H       
  37 H37           -7.3384     3.1633     0.3806 H       
  38 H38           -6.6286     1.4303     1.9775 H       
  39 H39           -4.2576    -0.6570    -0.5308 H       
  40 H40           -3.1334     0.6735    -2.8746 H       
  41 H41           -7.9361    -1.4207    -2.2360 H       
  42 H42           -5.4196     2.6635    -6.6378 H       
  43 H43           -7.6749     1.5481    -6.1719 H       
  44 H44           -2.6337    -2.5741    -0.7307 H       
  45 H45           -3.8921    -2.5795    -1.9895 H       
  46 H46           -2.2478    -2.0191    -2.3773 H       
@<TRIPOS>BOND
   1    1    2 ar
   2    1    3 ar
   3    1   10 1
   4    2    7 1
   5    2    6 ar
   6    3    4 ar
   7    3   31 1
   8    4    5 ar
   9    4   30 1
  10    5    6 ar
  11    5   32 1
  12    6   33 1
  13    7    8 2
  14    8    9 1
  15    8   17 1
  16    9   10 am
  17    9   11 1
  18   10   21 2
  19   11   12 ar
  20   11   13 ar
  21   12   16 ar
  22   12   34 1
  23   13   14 ar
  24   13   35 1
  25   14   15 ar
  26   14   36 1
  27   15   16 ar
  28   15   37 1
  29   16   38 1
  30   17   18 1
  31   17   29 1
  32   17   39 1
  33   18   19 1
  34   18   40 1
  35   19   20 ar
  36   19   22 ar
  37   20   25 ar
  38   22   23 ar
  39   22   26 1
  40   23   24 ar
  41   23   28 1
  42   24   25 ar
  43   25   41 1
  44   26   27 2
  45   27   28 1
  46   27   42 1
  47   28   43 1
  48   29   44 1
  49   29   45 1
  50   29   46 1

#	End of record

