#	Name: ASD01411076
#	Creating user name:	WinNT
#	Creation time:	15. 06. 2019 19:19

#	Modifying user name:	WinNT
#	Modification time:	15. 06. 2019 19:19

#	Program:	/corina/corina34_cracker 3.40 0067  02.08.2006

@<TRIPOS>MOLECULE
ASD01411076
  64   69    0    0    0
SMALL
NO_CHARGES


@<TRIPOS>ATOM
   1 C1             0.2450     2.1118     3.1414 C.ar    
   2 C2             0.1891     0.7986     3.5647 C.ar    
   3 C3             0.8185     2.4213     1.9147 C.ar    
   4 C4             0.7034    -0.2087     2.7690 C.ar    
   5 C5             1.3343     1.4086     1.1173 C.ar    
   6 N6             0.8760     3.7520     1.4831 N.am    
   7 C7             1.2755     0.0957     1.5463 C.ar    
   8 C8            -0.1614     4.2706     0.7952 C.2     
   9 C9             1.9949     4.5144     1.7750 C.2     
  10 Cl10           1.9199    -1.1719     0.5505 Cl      
  11 C11           -0.0879     5.6699     0.3483 C.ar    
  12 O12           -1.1411     3.5926     0.5481 O.2     
  13 N13            2.0916     5.8127     1.3746 N.pl3   
  14 N14            3.0964     4.2066     2.4275 N.2     
  15 C15            1.0646     6.4155     0.6563 C.ar    
  16 C16           -1.1314     6.2586    -0.3674 C.ar    
  17 C17            1.1558     7.7334     0.2462 C.ar    
  18 C18           -1.0302     7.5609    -0.7677 C.ar    
  19 C19            0.1084     8.3061    -0.4652 C.ar    
  20 C20            3.3062     6.2860     1.8133 C.2     
  21 C21            3.9086     5.2734     2.4617 C.2     
  22 N22            0.1971     9.6312    -0.8790 N.pl3   
  23 C23           -0.9520    10.2776    -1.5179 C.3     
  24 C24            2.3844     8.5441     0.5697 C.3     
  25 C25           -0.8649    11.7927    -1.3149 C.3     
  26 C26           -2.0343    12.4671    -2.0359 C.3     
  27 N27           -1.9810    12.1430    -3.4671 N.3     
  28 C28           -2.1104    10.6973    -3.6894 C.3     
  29 C29           -0.9433     9.9701    -3.0178 C.3     
  30 C30           -2.7683    12.7207    -5.6923 C.ar    
  31 C31           -3.3579    11.6736    -6.3757 C.ar    
  32 C32           -3.1439    11.5269    -7.7335 C.ar    
  33 C33           -2.3408    12.4274    -8.4079 C.ar    
  34 C34           -1.7520    13.4750    -7.7247 C.ar    
  35 C35           -1.9648    13.6209    -6.3667 C.ar    
  36 C36           -3.0066    12.8843    -4.2133 C.3     
  37 H37           -0.1609     2.8972     3.7617 H       
  38 H38           -0.2564     0.5579     4.5187 H       
  39 H39            0.6588    -1.2350     3.1026 H       
  40 H40            1.7805     1.6461     0.1629 H       
  41 H41           -2.0162     5.6863    -0.6043 H       
  42 H42           -1.8379     8.0162    -1.3215 H       
  43 H43            3.7006     7.2804     1.6655 H       
  44 H44            4.8809     5.3126     2.9303 H       
  45 H45            1.0197    10.1273    -0.7445 H       
  46 H46           -1.8741     9.9029    -1.0736 H       
  47 H47            3.1999     8.2466    -0.0895 H       
  48 H48            2.1691     9.6030     0.4264 H       
  49 H49            2.6727     8.3690     1.6062 H       
  50 H50           -0.9137    12.0207    -0.2501 H       
  51 H51            0.0759    12.1612    -1.7238 H       
  52 H52           -2.9746    12.1085    -1.6171 H       
  53 H53           -1.9673    13.5472    -1.9053 H       
  54 H54           -3.0503    10.3469    -3.2629 H       
  55 H55           -2.0987    10.4919    -4.7598 H       
  56 H56           -0.0037    10.3099    -3.4535 H       
  57 H57           -1.0481     8.8958    -3.1697 H       
  58 H58           -3.9853    10.9701    -5.8488 H       
  59 H59           -3.6039    10.7084    -8.2673 H       
  60 H60           -2.1730    12.3123    -9.4686 H       
  61 H61           -1.1239    14.1781    -8.2515 H       
  62 H62           -1.5042    14.4389    -5.8327 H       
  63 H63           -3.9928    12.4958    -3.9590 H       
  64 H64           -2.9538    13.9410    -3.9514 H       
@<TRIPOS>BOND
   1    1    2 ar
   2    1    3 ar
   3    1   37 1
   4    2    4 ar
   5    2   38 1
   6    3    5 ar
   7    3    6 1
   8    4    7 ar
   9    4   39 1
  10    5    7 ar
  11    5   40 1
  12    6    9 1
  13    6    8 am
  14    7   10 1
  15    8   11 1
  16    8   12 2
  17    9   13 1
  18    9   14 2
  19   11   15 ar
  20   11   16 ar
  21   13   20 1
  22   13   15 1
  23   14   21 1
  24   15   17 ar
  25   16   18 ar
  26   16   41 1
  27   17   24 1
  28   17   19 ar
  29   18   19 ar
  30   18   42 1
  31   19   22 1
  32   20   21 2
  33   20   43 1
  34   21   44 1
  35   22   23 1
  36   22   45 1
  37   23   25 1
  38   23   29 1
  39   23   46 1
  40   24   47 1
  41   24   48 1
  42   24   49 1
  43   25   26 1
  44   25   50 1
  45   25   51 1
  46   26   27 1
  47   26   52 1
  48   26   53 1
  49   27   28 1
  50   27   36 1
  51   28   29 1
  52   28   54 1
  53   28   55 1
  54   29   56 1
  55   29   57 1
  56   30   31 ar
  57   30   35 ar
  58   30   36 1
  59   31   32 ar
  60   31   58 1
  61   32   33 ar
  62   32   59 1
  63   33   34 ar
  64   33   60 1
  65   34   35 ar
  66   34   61 1
  67   35   62 1
  68   36   63 1
  69   36   64 1

#	End of record

