#	Name: ASD01470029
#	Creating user name:	WinNT
#	Creation time:	15. 06. 2019 19:21

#	Modifying user name:	WinNT
#	Modification time:	15. 06. 2019 19:21

#	Program:	/corina/corina34_cracker 3.40 0067  02.08.2006

@<TRIPOS>MOLECULE
ASD01470029
  84   90    0    0    0
SMALL
NO_CHARGES


@<TRIPOS>ATOM
   1 N1            -1.6837     1.4074     0.5948 N.am    
   2 C2            -0.3502     0.9626     0.1991 C.3     
   3 C3             0.1932    -0.0758     1.1907 C.3     
   4 C4            -0.2706    -1.4834     0.8493 C.3     
   5 C5            -1.6402    -1.4747     0.1907 C.3     
   6 N6            -2.6074    -0.7442     1.0107 N.am    
   7 C7            -2.6422     0.5998     1.0198 C.2     
   8 O8            -3.6528     1.1216     1.4498 O.2     
   9 C9            -3.5537    -1.4914     1.8430 C.3     
  10 C10           -1.9776     2.8408     0.5223 C.3     
  11 C11           -1.7132     3.4762     1.8630 C.ar    
  12 C12           -2.9957    -1.6314     3.2359 C.ar    
  13 C13           -3.1408    -0.6090     4.1280 C.ar    
  14 C14           -2.6227    -0.7403     5.4213 C.ar    
  15 C15           -1.9574    -1.9259     5.7882 C.ar    
  16 C16           -1.8250    -2.9525     4.8562 C.ar    
  17 C17           -2.3434    -2.8027     3.6014 C.ar    
  18 C18           -0.4338     3.8785     2.1969 C.ar    
  19 C19           -0.1913     4.4614     3.4268 C.ar    
  20 C20           -1.2284     4.6422     4.3224 C.ar    
  21 C21           -2.5084     4.2406     3.9881 C.ar    
  22 C22           -2.7516     3.6619     2.7568 C.ar    
  23 C23           -2.5966     0.1250     6.5961 C.2     
  24 N24           -1.9724    -0.5118     7.5454 N.2     
  25 N25           -1.5649    -1.7707     7.0920 N.pl3   
  26 C26           -0.4203     0.3388    -1.1961 C.3     
  27 O27            1.6215    -0.0387     1.1656 O.3     
  28 C28            0.4401     1.1326    -2.1451 C.ar    
  29 C29            1.7425     0.7396    -2.3907 C.ar    
  30 C30            2.5317     1.4678    -3.2612 C.ar    
  31 C31            2.0184     2.5888    -3.8864 C.ar    
  32 C32            0.7157     2.9812    -3.6416 C.ar    
  33 C33           -0.0749     2.2505    -2.7744 C.ar    
  34 C34           -2.1208    -2.9157     0.0083 C.3     
  35 O35           -0.3341    -2.2579     2.0486 O.3     
  36 C36           -1.2023    -3.6347    -0.9459 C.ar    
  37 C37           -0.0658    -4.2621    -0.4708 C.ar    
  38 C38            0.7767    -4.9215    -1.3462 C.ar    
  39 C39            0.4825    -4.9539    -2.6965 C.ar    
  40 C40           -0.6544    -4.3273    -3.1714 C.ar    
  41 C41           -1.4992    -3.6715    -2.2955 C.ar    
  42 C42           -3.6391     4.4374     4.9648 C.3     
  43 N43           -4.3314     5.6929     4.6639 N.pl3   
  44 C44           -5.6562     5.8303     4.4252 C.2     
  45 C45           -5.8632     7.1479     4.1950 C.2     
  46 N46           -4.6706     7.7443     4.3027 N.2     
  47 N47           -3.7849     6.8557     4.5866 N.2     
  48 H48            0.3216     1.8206     0.1736 H       
  49 H49           -0.1519     0.1774     2.1932 H       
  50 H50            0.4487    -1.9404     0.1696 H       
  51 H51           -1.5655    -0.9978    -0.7866 H       
  52 H52           -4.5026    -0.9566     1.8837 H       
  53 H53           -3.7123    -2.4807     1.4139 H       
  54 H54           -1.3411     3.3045    -0.2313 H       
  55 H55           -3.0238     2.9840     0.2523 H       
  56 H56           -3.6524     0.2967     3.8373 H       
  57 H57           -1.3163    -3.8662     5.1262 H       
  58 H58           -2.2387    -3.6016     2.8822 H       
  59 H59            0.3766     3.7372     1.4971 H       
  60 H60            0.8086     4.7752     3.6880 H       
  61 H61           -1.0388     5.0969     5.2835 H       
  62 H62           -3.7515     3.3481     2.4956 H       
  63 H63           -3.0193     1.1164     6.6659 H       
  64 H64           -1.0822    -2.4286     7.6165 H       
  65 H65           -0.0606    -0.6892    -1.1530 H       
  66 H66           -1.4523     0.3482    -1.5469 H       
  67 H67            2.0419    -0.6681     1.7673 H       
  68 H68            2.1435    -0.1361    -1.9022 H       
  69 H69            3.5494     1.1612    -3.4525 H       
  70 H70            2.6352     3.1581    -4.5660 H       
  71 H71            0.3148     3.8572    -4.1298 H       
  72 H72           -1.0926     2.5571    -2.5831 H       
  73 H73           -2.1149    -3.4254     0.9718 H       
  74 H74           -3.1335    -2.9127    -0.3949 H       
  75 H75            0.5114    -2.3365     2.5113 H       
  76 H76            0.1640    -4.2368     0.5841 H       
  77 H77            1.6650    -5.4111    -0.9751 H       
  78 H78            1.1412    -5.4685    -3.3804 H       
  79 H79           -0.8841    -4.3523    -4.2264 H       
  80 H80           -2.3875    -3.1820    -2.6665 H       
  81 H81           -4.3400     3.6069     4.8812 H       
  82 H82           -3.2408     4.4760     5.9787 H       
  83 H83           -6.3989     5.0463     4.4192 H       
  84 H84           -6.8057     7.6241     3.9686 H       
@<TRIPOS>BOND
   1    1    2 1
   2    1   10 1
   3    1    7 am
   4    2    3 1
   5    2   26 1
   6    2   48 1
   7    3    4 1
   8    3   27 1
   9    3   49 1
  10    4    5 1
  11    4   35 1
  12    4   50 1
  13    5    6 1
  14    5   34 1
  15    5   51 1
  16    6    7 am
  17    6    9 1
  18    7    8 2
  19    9   12 1
  20    9   52 1
  21    9   53 1
  22   10   11 1
  23   10   54 1
  24   10   55 1
  25   11   18 ar
  26   11   22 ar
  27   12   13 ar
  28   12   17 ar
  29   13   14 ar
  30   13   56 1
  31   14   15 ar
  32   14   23 1
  33   15   16 ar
  34   15   25 1
  35   16   17 ar
  36   16   57 1
  37   17   58 1
  38   18   19 ar
  39   18   59 1
  40   19   20 ar
  41   19   60 1
  42   20   21 ar
  43   20   61 1
  44   21   22 ar
  45   21   42 1
  46   22   62 1
  47   23   24 2
  48   23   63 1
  49   24   25 1
  50   25   64 1
  51   26   28 1
  52   26   65 1
  53   26   66 1
  54   27   67 1
  55   28   29 ar
  56   28   33 ar
  57   29   30 ar
  58   29   68 1
  59   30   31 ar
  60   30   69 1
  61   31   32 ar
  62   31   70 1
  63   32   33 ar
  64   32   71 1
  65   33   72 1
  66   34   36 1
  67   34   73 1
  68   34   74 1
  69   35   75 1
  70   36   37 ar
  71   36   41 ar
  72   37   38 ar
  73   37   76 1
  74   38   39 ar
  75   38   77 1
  76   39   40 ar
  77   39   78 1
  78   40   41 ar
  79   40   79 1
  80   41   80 1
  81   42   43 1
  82   42   81 1
  83   42   82 1
  84   43   44 1
  85   43   47 1
  86   44   45 2
  87   44   83 1
  88   45   46 1
  89   45   84 1
  90   46   47 2

#	End of record

