#	Name: ASD05430589
#	Creating user name:	WinNT
#	Creation time:	15. 06. 2019 21:00

#	Modifying user name:	WinNT
#	Modification time:	15. 06. 2019 21:00

#	Program:	/corina/corina34_cracker 3.40 0067  02.08.2006

@<TRIPOS>MOLECULE
ASD05430589
  35   35    0    0    0
SMALL
NO_CHARGES


@<TRIPOS>ATOM
   1 C1             0.0030     1.4112     0.0326 C.ar    
   2 C2            -0.0152     0.0391    -0.1328 C.ar    
   3 C3             1.2085     2.0762     0.1599 C.ar    
   4 C4             2.3953     1.3689     0.1217 C.ar    
   5 C5             2.3770    -0.0037    -0.0434 C.ar    
   6 C6             1.1720    -0.6684    -0.1710 C.ar    
   7 C7             1.2284     3.5723     0.3398 C.3     
   8 C8             1.1520    -2.1646    -0.3504 C.3     
   9 C9             1.9156    -2.5358    -1.6232 C.3     
  10 C10            1.8162    -2.8317     0.8557 C.3     
  11 C11            1.7835     3.9121     1.7244 C.3     
  12 C12            2.1163     4.2033    -0.7346 C.3     
  13 S13           -1.5509     2.3384     0.0751 Du      
  14 F14           -2.1051     1.4661    -1.1595 F       
  15 F15           -2.1628     1.2654     1.1078 F       
  16 F16           -0.9967     3.2106     1.3097 F       
  17 F17           -2.9331     3.1631     0.1129 F       
  18 F18           -0.9389     3.4113    -0.9576 F       
  19 H19           -0.9569    -0.4804    -0.2318 H       
  20 H20            3.3370     1.8884     0.2204 H       
  21 H21            3.3044    -0.5563    -0.0739 H       
  22 H22            0.2148     3.9627     0.2488 H       
  23 H23            0.1205    -2.5069    -0.4326 H       
  24 H24            1.9012    -3.6180    -1.7530 H       
  25 H25            1.4424    -2.0605    -2.4825 H       
  26 H26            2.9472    -2.1935    -1.5410 H       
  27 H27            1.2723    -2.5672     1.7624 H       
  28 H28            1.8018    -3.9139     0.7259 H       
  29 H29            2.8478    -2.4894     0.9379 H       
  30 H30            2.7971     3.5217     1.8154 H       
  31 H31            1.7979     4.9942     1.8546 H       
  32 H32            1.1509     3.4625     2.4898 H       
  33 H33            1.7209     3.9612    -1.7210 H       
  34 H34            2.1307     5.2855    -0.6045 H       
  35 H35            3.1299     3.8129    -0.6436 H       
@<TRIPOS>BOND
   1    1    2 ar
   2    1    3 ar
   3    1   13 1
   4    2    6 ar
   5    2   19 1
   6    3    4 ar
   7    3    7 1
   8    4    5 ar
   9    4   20 1
  10    5    6 ar
  11    5   21 1
  12    6    8 1
  13    7   11 1
  14    7   12 1
  15    7   22 1
  16    8    9 1
  17    8   10 1
  18    8   23 1
  19    9   24 1
  20    9   25 1
  21    9   26 1
  22   10   27 1
  23   10   28 1
  24   10   29 1
  25   11   30 1
  26   11   31 1
  27   11   32 1
  28   12   33 1
  29   12   34 1
  30   12   35 1
  31   13   14 1
  32   13   15 1
  33   13   16 1
  34   13   17 1
  35   13   18 1

#	End of record

