#	Name: ASD03331763
#	Creating user name:	WinNT
#	Creation time:	15. 06. 2019 20:39

#	Modifying user name:	WinNT
#	Modification time:	15. 06. 2019 20:39

#	Program:	/corina/corina34_cracker 3.40 0067  02.08.2006

@<TRIPOS>MOLECULE
ASD03331763
  43   46    0    0    0
SMALL
NO_CHARGES


@<TRIPOS>ATOM
   1 F1             0.0021    -0.0041     0.0020 F       
   2 C2            -0.0162     1.3468     0.0094 C.ar    
   3 C3            -1.2264     2.0211     0.0304 C.ar    
   4 C4            -1.2497     3.4006     0.0385 C.ar    
   5 C5            -0.0538     4.1157     0.0256 C.ar    
   6 C6             1.1611     3.4335     0.0045 C.ar    
   7 C7             1.1753     2.0538     0.0019 C.ar    
   8 C8            -0.0739     5.5994     0.0338 C.ar    
   9 C9             1.1196     6.3257     0.0151 C.ar    
  10 C10            1.0471     7.7083     0.0238 C.ar    
  11 C11           -0.1925     8.3205     0.0504 C.ar    
  12 C12           -0.2766     9.8251     0.0599 C.3     
  13 N13           -0.4500    10.3132    -1.3105 N.am    
  14 S14           -0.9406    11.8720    -1.5784 S.o2    
  15 O15           -0.9794    12.0437    -2.9885 O.2     
  16 O16           -2.0656    12.0887    -0.7378 O.2     
  17 C17            0.3364    12.9302    -0.9833 C.2     
  18 C18            0.4202    13.4081     0.2683 C.2     
  19 C19            1.6255    14.2386     0.3299 C.ar    
  20 C20            2.2360    14.9884     1.3369 C.ar    
  21 C21            3.3971    15.6771     1.0644 C.ar    
  22 Br22           4.2286    16.6939     2.4248 Br      
  23 C23            3.9609    15.6287    -0.2039 C.ar    
  24 C24            3.3701    14.8932    -1.2077 C.ar    
  25 C25            2.1973    14.1901    -0.9546 C.ar    
  26 N26            1.3924    13.3818    -1.7269 N.pl3   
  27 H27            1.5497    13.1666    -2.6595 H       
  28 N28           -1.3025     7.6080     0.0670 N.ar    
  29 C29           -1.2835     6.2910     0.0543 C.ar    
  30 H30           -2.1528     1.4660     0.0401 H       
  31 H31           -2.1935     3.9254     0.0545 H       
  32 H32            2.0903     3.9839    -0.0059 H       
  33 H33            2.1164     1.5242    -0.0100 H       
  34 H34            2.0744     5.8214    -0.0051 H       
  35 H35            1.9490     8.3023     0.0103 H       
  36 H36           -1.1262    10.1376     0.6671 H       
  37 H37            0.6410    10.2377     0.4792 H       
  38 H38           -0.2774     9.7233    -2.0609 H       
  39 H39           -0.2702    13.2170     1.0765 H       
  40 H40            1.8000    15.0285     2.3241 H       
  41 H41            4.8714    16.1734    -0.4054 H       
  42 H42            3.8171    14.8629    -2.1904 H       
  43 H43           -2.2136     5.7422     0.0640 H       
@<TRIPOS>BOND
   1    1    2 1
   2    2    7 ar
   3    2    3 ar
   4    3    4 ar
   5    3   30 1
   6    4    5 ar
   7    4   31 1
   8    5    6 ar
   9    5    8 1
  10    6    7 ar
  11    6   32 1
  12    7   33 1
  13    8   29 ar
  14    8    9 ar
  15    9   10 ar
  16    9   34 1
  17   10   11 ar
  18   10   35 1
  19   11   12 1
  20   11   28 ar
  21   12   13 1
  22   12   36 1
  23   12   37 1
  24   13   14 am
  25   13   38 1
  26   14   15 2
  27   14   16 2
  28   14   17 1
  29   17   26 1
  30   17   18 2
  31   18   19 1
  32   18   39 1
  33   19   25 ar
  34   19   20 ar
  35   20   21 ar
  36   20   40 1
  37   21   22 1
  38   21   23 ar
  39   23   24 ar
  40   23   41 1
  41   24   25 ar
  42   24   42 1
  43   25   26 1
  44   26   27 1
  45   28   29 ar
  46   29   43 1

#	End of record

