#	Name: ASD01810592
#	Creating user name:	WinNT
#	Creation time:	15. 06. 2019 19:24

#	Modifying user name:	WinNT
#	Modification time:	15. 06. 2019 19:24

#	Program:	/corina/corina34_cracker 3.40 0067  02.08.2006

@<TRIPOS>MOLECULE
ASD01810592
  75   79    0    0    0
SMALL
NO_CHARGES


@<TRIPOS>ATOM
   1 C1             0.0078     1.4725    -0.5286 C.2     
   2 C2             0.0818    -0.0007    -0.5218 C.ar    
   3 C3             1.1685    -0.6616    -1.1154 C.ar    
   4 C4             1.1963    -2.0296    -1.0853 C.ar    
   5 C5             0.1534    -2.7214    -0.4713 C.ar    
   6 N6            -0.8620    -2.0726     0.0823 N.ar    
   7 C7            -0.9248    -0.7574     0.0800 C.ar    
   8 O8             0.8922     2.1233    -1.0510 O.2     
   9 N9            -1.0429     2.0970     0.0394 N.am    
  10 O10            0.2510    -6.6252     0.7988 O.3     
  11 C11           -0.9692    -6.1676     0.2097 C.3     
  12 C12           -1.0067    -4.6376     0.2497 C.3     
  13 N13            0.1779    -4.1054    -0.4394 N.3     
  14 C14            1.4118    -4.5961     0.1914 C.3     
  15 C15            1.4250    -6.1265     0.1521 C.3     
  16 C16           -1.0602     3.4927     0.1325 C.ar    
  17 C17           -2.2627     4.1816     0.0247 C.ar    
  18 C18           -2.2850     5.5605     0.1160 C.ar    
  19 C19           -1.1135     6.2627     0.3148 C.ar    
  20 C20            0.0991     5.5803     0.4249 C.ar    
  21 C21            0.1211     4.1883     0.3379 C.ar    
  22 C22           -1.1436     7.7663     0.4127 C.3     
  23 C23           -3.5462     3.4225    -0.1930 C.3     
  24 C24           -4.1001     2.9597     1.1560 C.3     
  25 C25            1.3555     6.3302     0.6379 C.2     
  26 O26            1.6781     7.2086    -0.1378 O.2     
  27 N27            2.1432     6.0396     1.6923 N.am    
  28 C28            3.3487     6.8332     1.9674 C.3     
  29 C29            3.2912     7.3317     3.4148 C.3     
  30 C30            3.0962     6.1389     4.3535 C.3     
  31 C31            1.7721     5.4435     4.0292 C.3     
  32 C32            1.8093     4.9271     2.5920 C.3     
  33 F33            4.1508     5.2354     4.1844 F       
  34 C34            3.0732     6.6219     5.7809 C.ar    
  35 C35            3.2203     5.7164     6.8166 C.ar    
  36 C36            3.2003     6.1515     8.1255 C.ar    
  37 C37            3.0315     7.5094     8.4038 C.ar    
  38 C38            2.8842     8.4178     7.3537 C.ar    
  39 C39            2.9109     7.9694     6.0493 C.ar    
  40 C40            3.0093     7.9682     9.7602 C.1     
  41 N41            2.9916     8.3322    10.8361 N.1     
  42 H42            1.9646    -0.1033    -1.5856 H       
  43 H43            2.0182    -2.5681    -1.5335 H       
  44 H44           -1.7639    -0.2603     0.5440 H       
  45 H45           -1.7871     1.5787     0.3835 H       
  46 H46           -1.0232    -6.5061    -0.8250 H       
  47 H47           -1.8155    -6.5671     0.7686 H       
  48 H48           -1.9083    -4.2824    -0.2494 H       
  49 H49           -1.0069    -4.3005     1.2862 H       
  50 H50            2.2757    -4.2106    -0.3501 H       
  51 H51            1.4503    -4.2583     1.2271 H       
  52 H52            2.3103    -6.4963     0.6693 H       
  53 H53            1.4407    -6.4638    -0.8843 H       
  54 H54           -3.2223     6.0903     0.0311 H       
  55 H55            1.0558     3.6546     0.4264 H       
  56 H56           -1.3683     8.0592     1.4383 H       
  57 H57           -0.1725     8.1686     0.1243 H       
  58 H58           -1.9118     8.1584    -0.2538 H       
  59 H59           -4.2736     4.0711    -0.6812 H       
  60 H60           -3.3526     2.5546    -0.8233 H       
  61 H61           -5.0284     2.4107     0.9986 H       
  62 H62           -3.3727     2.3111     1.6442 H       
  63 H63           -4.2937     3.8277     1.7864 H       
  64 H64            4.2341     6.2126     1.8295 H       
  65 H65            3.3879     7.6853     1.2887 H       
  66 H66            4.2230     7.8405     3.6616 H       
  67 H67            2.4570     8.0241     3.5282 H       
  68 H68            1.6227     4.6082     4.7134 H       
  69 H69            0.9522     6.1537     4.1369 H       
  70 H70            0.8332     4.5218     2.3254 H       
  71 H71            2.5666     4.1478     2.5062 H       
  72 H72            3.3507     4.6664     6.5999 H       
  73 H73            3.3145     5.4436     8.9331 H       
  74 H74            2.7533     9.4694     7.5620 H       
  75 H75            2.8012     8.6714     5.2360 H       
@<TRIPOS>BOND
   1    1    2 1
   2    1    8 2
   3    1    9 am
   4    2    3 ar
   5    2    7 ar
   6    3    4 ar
   7    3   42 1
   8    4    5 ar
   9    4   43 1
  10    5    6 ar
  11    5   13 1
  12    6    7 ar
  13    7   44 1
  14    9   16 1
  15    9   45 1
  16   10   11 1
  17   10   15 1
  18   11   12 1
  19   11   46 1
  20   11   47 1
  21   12   13 1
  22   12   48 1
  23   12   49 1
  24   13   14 1
  25   14   15 1
  26   14   50 1
  27   14   51 1
  28   15   52 1
  29   15   53 1
  30   16   17 ar
  31   16   21 ar
  32   17   18 ar
  33   17   23 1
  34   18   19 ar
  35   18   54 1
  36   19   20 ar
  37   19   22 1
  38   20   21 ar
  39   20   25 1
  40   21   55 1
  41   22   56 1
  42   22   57 1
  43   22   58 1
  44   23   24 1
  45   23   59 1
  46   23   60 1
  47   24   61 1
  48   24   62 1
  49   24   63 1
  50   25   26 2
  51   25   27 am
  52   27   28 1
  53   27   32 1
  54   28   29 1
  55   28   64 1
  56   28   65 1
  57   29   30 1
  58   29   66 1
  59   29   67 1
  60   30   31 1
  61   30   33 1
  62   30   34 1
  63   31   32 1
  64   31   68 1
  65   31   69 1
  66   32   70 1
  67   32   71 1
  68   34   35 ar
  69   34   39 ar
  70   35   36 ar
  71   35   72 1
  72   36   37 ar
  73   36   73 1
  74   37   38 ar
  75   37   40 1
  76   38   39 ar
  77   38   74 1
  78   39   75 1
  79   40   41 3

#	End of record

