#	Name: ASD03540291
#	Creating user name:	WinNT
#	Creation time:	15. 06. 2019 20:42

#	Modifying user name:	WinNT
#	Modification time:	15. 06. 2019 20:42

#	Program:	/corina/corina34_cracker 3.40 0067  02.08.2006

@<TRIPOS>MOLECULE
ASD03540291
  55   58    0    0    0
SMALL
NO_CHARGES


@<TRIPOS>ATOM
   1 C1            -1.7144     8.4144    -1.9043 C.ar    
   2 C2            -2.5673     7.3238    -1.9914 C.ar    
   3 C3            -2.0651     6.0395    -1.8394 C.ar    
   4 C4            -0.7175     5.8497    -1.6018 C.ar    
   5 C5             0.1304     6.9384    -1.5150 C.ar    
   6 C6            -0.3676     8.2193    -1.6665 C.ar    
   7 O7            -3.8927     7.5131    -2.2248 O.3     
   8 C8            -4.7113     6.3444    -2.3021 C.3     
   9 C9             1.5998     6.7285    -1.2547 C.3     
  10 N10            2.3067     6.5893    -2.5303 N.am    
  11 C11            3.6399     6.3920    -2.5439 C.2     
  12 C12            4.3467     6.2528    -3.8194 C.2     
  13 O13            4.2566     6.3296    -1.4964 O.2     
  14 S14            3.5889     6.3222    -5.4003 S.3     
  15 C15            5.0810     6.0797    -6.1959 C.2     
  16 C16            6.1093     5.9526    -5.2697 C.2     
  17 C17            5.6698     6.0593    -3.9482 C.2     
  18 N18            5.3772     5.9998    -7.5451 N.am    
  19 C19            6.6323     5.8023    -7.9729 C.2     
  20 N20            7.6641     5.6725    -7.1235 N.am    
  21 C21            7.4771     5.7359    -5.7921 C.2     
  22 O22            8.4181     5.6173    -5.0297 O.2     
  23 O23            6.8430     5.7382    -9.1685 O.2     
  24 C24            4.2973     6.1331    -8.5260 C.3     
  25 C25            9.0130     5.4584    -7.6536 C.3     
  26 C26           10.0202     6.2555    -6.8224 C.3     
  27 C27            9.3531     3.9919    -7.5841 C.ar    
  28 C28           10.0634     3.3977    -8.6104 C.ar    
  29 C29           10.3754     2.0525    -8.5466 C.ar    
  30 C30            9.9774     1.3017    -7.4563 C.ar    
  31 C31            9.2679     1.8961    -6.4296 C.ar    
  32 C32            8.9597     3.2422    -6.4914 C.ar    
  33 H33           -2.1022     9.4150    -2.0266 H       
  34 H34           -2.7271     5.1889    -1.9065 H       
  35 H35           -0.3261     4.8501    -1.4834 H       
  36 H36            0.2968     9.0681    -1.5982 H       
  37 H37           -5.7443     6.6362    -2.4915 H       
  38 H38           -4.3591     5.7072    -3.1133 H       
  39 H39           -4.6548     5.7983    -1.3604 H       
  40 H40            1.9982     7.5845    -0.7100 H       
  41 H41            1.7383     5.8243    -0.6620 H       
  42 H42            1.8152     6.6391    -3.3651 H       
  43 H43            6.3361     5.9845    -3.1015 H       
  44 H44            4.1797     7.1824    -8.7966 H       
  45 H45            4.5415     5.5535    -9.4163 H       
  46 H46            3.3672     5.7626    -8.0951 H       
  47 H47            9.0530     5.7919    -8.6906 H       
  48 H48            9.5142     7.0951    -6.3458 H       
  49 H49           10.4519     5.6099    -6.0576 H       
  50 H50           10.8119     6.6294    -7.4715 H       
  51 H51           10.3744     3.9844    -9.4622 H       
  52 H52           10.9298     1.5881    -9.3487 H       
  53 H53           10.2205     0.2505    -7.4068 H       
  54 H54            8.9566     1.3094    -5.5780 H       
  55 H55            8.4053     3.7066    -5.6892 H       
@<TRIPOS>BOND
   1    1    2 ar
   2    1    6 ar
   3    1   33 1
   4    2    3 ar
   5    2    7 1
   6    3    4 ar
   7    3   34 1
   8    4    5 ar
   9    4   35 1
  10    5    6 ar
  11    5    9 1
  12    6   36 1
  13    7    8 1
  14    8   37 1
  15    8   38 1
  16    8   39 1
  17    9   10 1
  18    9   40 1
  19    9   41 1
  20   10   11 am
  21   10   42 1
  22   11   12 1
  23   11   13 2
  24   12   14 1
  25   12   17 2
  26   14   15 1
  27   15   16 2
  28   15   18 1
  29   16   17 1
  30   16   21 1
  31   17   43 1
  32   18   19 am
  33   18   24 1
  34   19   20 am
  35   19   23 2
  36   20   21 am
  37   20   25 1
  38   21   22 2
  39   24   44 1
  40   24   45 1
  41   24   46 1
  42   25   26 1
  43   25   27 1
  44   25   47 1
  45   26   48 1
  46   26   49 1
  47   26   50 1
  48   27   28 ar
  49   27   32 ar
  50   28   29 ar
  51   28   51 1
  52   29   30 ar
  53   29   52 1
  54   30   31 ar
  55   30   53 1
  56   31   32 ar
  57   31   54 1
  58   32   55 1

#	End of record

