#	Name: ASD03731735
#	Creating user name:	WinNT
#	Creation time:	15. 06. 2019 20:46

#	Modifying user name:	WinNT
#	Modification time:	15. 06. 2019 20:46

#	Program:	/corina/corina34_cracker 3.40 0067  02.08.2006

@<TRIPOS>MOLECULE
ASD03731735
  33   34    0    0    0
SMALL
NO_CHARGES


@<TRIPOS>ATOM
   1 C1             0.7596     1.4152    -0.4027 C.2     
   2 C2             0.5750    -0.0457    -0.3022 C.ar    
   3 C3             1.5339    -0.9113    -0.8351 C.ar    
   4 C4             1.3581    -2.2736    -0.7393 C.ar    
   5 C5             0.2282    -2.7882    -0.1138 C.ar    
   6 C6            -0.7280    -1.9303     0.4176 C.ar    
   7 C7            -0.5563    -0.5668     0.3313 C.ar    
   8 O8             1.7470     1.8670    -0.9499 O.2     
   9 N9            -0.1690     2.2485     0.1070 N.am    
  10 S10            0.0381     3.8876    -0.0059 S.o2    
  11 O11           -1.1005     4.4306     0.6483 O.2     
  12 O12            1.3481     4.1108     0.4976 O.2     
  13 C13           -0.0266     4.2305    -1.7860 C.3     
  14 O14            0.0580    -4.1313    -0.0222 O.3     
  15 C15            0.5842    -4.7691     1.0568 C.ar    
  16 C16            0.5359    -6.1549     1.1375 C.ar    
  17 C17            1.0730    -6.8011     2.2384 C.ar    
  18 C18            1.6570    -6.0654     3.2562 C.ar    
  19 C19            1.7044    -4.6864     3.1756 C.ar    
  20 C20            1.1753    -4.0374     2.0760 C.ar    
  21 F21            1.0270    -8.1489     2.3197 F       
  22 F22           -0.0345    -6.8711     0.1441 F       
  23 H23            2.4116    -0.5123    -1.3218 H       
  24 H24            2.0988    -2.9432    -1.1510 H       
  25 H25           -1.6044    -2.3338     0.9028 H       
  26 H26           -1.2974     0.0990     0.7484 H       
  27 H27           -0.9586     1.8881     0.5399 H       
  28 H28           -0.9915     3.9141    -2.1821 H       
  29 H29            0.1026     5.2996    -1.9550 H       
  30 H30            0.7702     3.6840    -2.2905 H       
  31 H31            2.0757    -6.5700     4.1144 H       
  32 H32            2.1601    -4.1153     3.9709 H       
  33 H33            1.2177    -2.9601     2.0128 H       
@<TRIPOS>BOND
   1    1    2 1
   2    1    8 2
   3    1    9 am
   4    2    3 ar
   5    2    7 ar
   6    3    4 ar
   7    3   23 1
   8    4    5 ar
   9    4   24 1
  10    5    6 ar
  11    5   14 1
  12    6    7 ar
  13    6   25 1
  14    7   26 1
  15    9   10 am
  16    9   27 1
  17   10   11 2
  18   10   12 2
  19   10   13 1
  20   13   28 1
  21   13   29 1
  22   13   30 1
  23   14   15 1
  24   15   16 ar
  25   15   20 ar
  26   16   17 ar
  27   16   22 1
  28   17   18 ar
  29   17   21 1
  30   18   19 ar
  31   18   31 1
  32   19   20 ar
  33   19   32 1
  34   20   33 1

#	End of record

