#	Name: ASD01883863
#	Creating user name:	WinNT
#	Creation time:	15. 06. 2019 19:47

#	Modifying user name:	WinNT
#	Modification time:	15. 06. 2019 19:47

#	Program:	/corina/corina34_cracker 3.40 0067  02.08.2006

@<TRIPOS>MOLECULE
ASD01883863
  48   52    0    0    0
SMALL
NO_CHARGES


@<TRIPOS>ATOM
   1 O1             0.3653     1.3455     0.4206 O.3     
   2 C2             0.3920    -0.0108     0.4701 C.2     
   3 C3             1.5647    -2.0709     0.7822 C.2     
   4 C4             1.5613    -0.6657     0.7360 C.2     
   5 C5            -0.7881    -0.7519     0.2533 C.2     
   6 C6            -0.7640    -2.0987     0.3024 C.2     
   7 N7             2.0008    -4.1522     0.9401 N.2     
   8 N8             2.5082    -2.9718     1.0085 N.2     
   9 N9             0.3989    -2.7631     0.5618 N.pl3   
  10 C10            0.7233    -4.0827     0.6719 C.2     
  11 C11           -0.2187    -5.2482     0.5130 C.3     
  12 C12           -0.8317    -5.5973     1.8707 C.3     
  13 C13           -1.9087    -6.6836     1.9012 C.3     
  14 C14           -0.5130    -6.9742     2.4567 C.3     
  15 C15            2.8317     0.1086     0.9762 C.3     
  16 F16            2.5992     1.4689     0.7467 F       
  17 F17            3.2477    -0.0768     2.2990 F       
  18 F18            3.8275    -0.3477     0.1059 F       
  19 C19           -0.4069     2.0160     1.4187 C.3     
  20 C20           -0.2199     3.5280     1.2778 C.3     
  21 C21           -0.5602     4.1019    -0.0735 C.ar    
  22 C22           -2.1788     4.6014    -1.7657 C.ar    
  23 C23           -1.1845     5.1537    -2.5534 C.ar    
  24 C24            0.1231     5.1750    -2.1018 C.ar    
  25 C25            0.4346     4.6489    -0.8623 C.ar    
  26 C26           -1.8662     4.0760    -0.5261 C.ar    
  27 Cl27          -1.5762     5.8132    -4.1107 Cl      
  28 C28           -0.5094     4.3931     2.5060 C.3     
  29 C29            0.9345     4.1719     2.0484 C.3     
  30 H30           -1.7154    -0.2380     0.0472 H       
  31 H31           -1.6734    -2.6568     0.1352 H       
  32 H32           -1.0115    -4.9820    -0.1860 H       
  33 H33            0.3296    -6.1089     0.1299 H       
  34 H34           -0.9361    -4.7654     2.5672 H       
  35 H35           -2.7214    -6.5666     2.6180 H       
  36 H36           -2.1805    -7.1496     0.9540 H       
  37 H37            0.1334    -7.6314     1.8750 H       
  38 H38           -0.4076    -7.0484     3.5390 H       
  39 H39           -1.4603     1.7668     1.2913 H       
  40 H40           -0.0757     1.6996     2.4077 H       
  41 H41           -3.1997     4.5848    -2.1174 H       
  42 H42            0.8998     5.6057    -2.7164 H       
  43 H43            1.4553     4.6655    -0.5097 H       
  44 H44           -2.6422     3.6448     0.0889 H       
  45 H45           -0.9457     5.3776     2.3367 H       
  46 H46           -0.8331     3.8852     3.4145 H       
  47 H47            1.5607     3.5183     2.6557 H       
  48 H48            1.4475     5.0108     1.5782 H       
@<TRIPOS>BOND
   1    1    2 1
   2    1   19 1
   3    2    5 1
   4    2    4 2
   5    3    4 1
   6    3    9 1
   7    3    8 2
   8    4   15 1
   9    5    6 2
  10    5   30 1
  11    6    9 1
  12    6   31 1
  13    7    8 1
  14    7   10 2
  15    9   10 1
  16   10   11 1
  17   11   12 1
  18   11   32 1
  19   11   33 1
  20   12   13 1
  21   12   14 1
  22   12   34 1
  23   13   14 1
  24   13   35 1
  25   13   36 1
  26   14   37 1
  27   14   38 1
  28   15   16 1
  29   15   17 1
  30   15   18 1
  31   19   20 1
  32   19   39 1
  33   19   40 1
  34   20   21 1
  35   20   28 1
  36   20   29 1
  37   21   26 ar
  38   21   25 ar
  39   22   23 ar
  40   22   26 ar
  41   22   41 1
  42   23   24 ar
  43   23   27 1
  44   24   25 ar
  45   24   42 1
  46   25   43 1
  47   26   44 1
  48   28   29 1
  49   28   45 1
  50   28   46 1
  51   29   47 1
  52   29   48 1

#	End of record

