#	Name: ASD08070080
#	Creating user name:	WinNT
#	Creation time:	15. 06. 2019 21:14

#	Modifying user name:	WinNT
#	Modification time:	15. 06. 2019 21:14

#	Program:	/corina/corina34_cracker 3.40 0067  02.08.2006

@<TRIPOS>MOLECULE
ASD08070080
  39   40    0    0    0
SMALL
NO_CHARGES


@<TRIPOS>ATOM
   1 C1            -0.0169     1.3928     0.0097 C.ar    
   2 C2             0.0021    -0.0041     0.0020 C.ar    
   3 C3             1.1674     2.0963     0.0022 C.ar    
   4 C4             2.3802     1.4188    -0.0130 C.ar    
   5 C5             2.4041     0.0279    -0.0212 C.ar    
   6 C6             1.2237    -0.6828    -0.0133 C.ar    
   7 O7             3.5449     2.1158    -0.0204 O.3     
   8 C8             3.4478     3.5415    -0.0118 C.3     
   9 Cl9            3.9225    -0.8133    -0.0408 Cl      
  10 C10           -1.2649    -0.7613     0.0105 C.2     
  11 O11           -2.3268    -0.1693     0.0243 O.2     
  12 N12           -1.2447    -2.1089     0.0031 N.am    
  13 C13           -2.5022    -2.8604     0.0116 C.3     
  14 C14           -3.0187    -3.0064    -1.4212 C.3     
  15 C15           -1.9831    -3.7546    -2.2629 C.3     
  16 C16           -1.7442    -5.1417    -1.6631 C.3     
  17 C17           -1.2277    -4.9957    -0.2303 C.3     
  18 C18           -2.2633    -4.2475     0.6114 C.3     
  19 C19           -1.7468    -4.1015     2.0442 C.3     
  20 H20           -0.9591     1.9206     0.0170 H       
  21 H21            1.1531     3.1762     0.0077 H       
  22 H22            1.2425    -1.7626    -0.0196 H       
  23 H23            4.4484     3.9739    -0.0191 H       
  24 H24            2.9020     3.8738    -0.8949 H       
  25 H25            2.9190     3.8643     0.8850 H       
  26 H26           -0.3975    -2.5811    -0.0078 H       
  27 H27           -3.2400    -2.3273     0.6112 H       
  28 H28           -3.9544    -3.5655    -1.4149 H       
  29 H29           -3.1889    -2.0182    -1.8485 H       
  30 H30           -2.3511    -3.8586    -3.2836 H       
  31 H31           -1.0475    -3.1954    -2.2692 H       
  32 H32           -2.6799    -5.7009    -1.6568 H       
  33 H33           -1.0064    -5.6747    -2.2627 H       
  34 H34           -1.0575    -5.9839     0.1970 H       
  35 H35           -0.2921    -4.4365    -0.2366 H       
  36 H36           -3.1990    -4.8066     0.6177 H       
  37 H37           -0.8112    -3.5423     2.0379 H       
  38 H38           -2.4846    -3.5684     2.6438 H       
  39 H39           -1.5767    -5.0897     2.4715 H       
@<TRIPOS>BOND
   1    1    2 ar
   2    1    3 ar
   3    1   20 1
   4    2   10 1
   5    2    6 ar
   6    3    4 ar
   7    3   21 1
   8    4    5 ar
   9    4    7 1
  10    5    6 ar
  11    5    9 1
  12    6   22 1
  13    7    8 1
  14    8   23 1
  15    8   24 1
  16    8   25 1
  17   10   11 2
  18   10   12 am
  19   12   13 1
  20   12   26 1
  21   13   14 1
  22   13   18 1
  23   13   27 1
  24   14   15 1
  25   14   28 1
  26   14   29 1
  27   15   16 1
  28   15   30 1
  29   15   31 1
  30   16   17 1
  31   16   32 1
  32   16   33 1
  33   17   18 1
  34   17   34 1
  35   17   35 1
  36   18   19 1
  37   18   36 1
  38   19   37 1
  39   19   38 1
  40   19   39 1

#	End of record

