#	Name: ASD01912254
#	Creating user name:	WinNT
#	Creation time:	15. 06. 2019 19:59

#	Modifying user name:	WinNT
#	Modification time:	15. 06. 2019 19:59

#	Program:	/corina/corina34_cracker 3.40 0067  02.08.2006

@<TRIPOS>MOLECULE
ASD01912254
  41   43    0    0    0
SMALL
NO_CHARGES


@<TRIPOS>ATOM
   1 C1            -0.0167     1.3791     0.0096 C.ar    
   2 C2             0.0021    -0.0041     0.0020 C.ar    
   3 C3             1.2202    -0.6700    -0.0132 C.ar    
   4 C4             2.3829     0.0790    -0.0202 C.ar    
   5 C5             2.2916     1.4735    -0.0119 C.ar    
   6 N6             1.1034     2.0714     0.0026 N.ar    
   7 C7             3.4855     2.2642    -0.0190 C.1     
   8 C8             4.4642     2.9125    -0.0248 C.1     
   9 C9             5.6581     3.7033    -0.0320 C.2     
  10 N10            5.4053     7.6840    -0.9187 N.3     
  11 C11            6.6646     6.9574    -1.1238 C.3     
  12 C12            6.8224     5.8936    -0.0313 C.3     
  13 C13            5.5764     5.0331    -0.0241 C.2     
  14 C14            4.2344     5.7345    -0.0080 C.3     
  15 C15            4.2410     6.8084    -1.1020 C.3     
  16 C16            5.3296     8.7943    -1.7515 C.ar    
  17 C17            4.2070     9.6151    -1.7059 C.ar    
  18 C18            4.1448    10.7165    -2.5400 C.ar    
  19 C19            5.2113    10.9613    -3.3952 C.ar    
  20 C20            6.2940    10.1052    -3.3881 C.ar    
  21 N21            6.3286     9.0645    -2.5772 N.ar    
  22 C22           -1.3378     2.1040     0.0198 C.3     
  23 H23           -0.9231    -0.5612     0.0082 H       
  24 H24            1.2589    -1.7493    -0.0190 H       
  25 H25            3.3474    -0.4068    -0.0317 H       
  26 H26            6.6247     3.2217    -0.0438 H       
  27 H27            6.6512     6.4754    -2.1013 H       
  28 H28            7.4998     7.6561    -1.0742 H       
  29 H29            7.6948     5.2755    -0.2434 H       
  30 H30            6.9408     6.3772     0.9383 H       
  31 H31            3.4406     5.0139    -0.2051 H       
  32 H32            4.0750     6.2010     0.9641 H       
  33 H33            3.3277     7.3996    -1.0366 H       
  34 H34            4.2959     6.3306    -2.0801 H       
  35 H35            3.3951     9.3949    -1.0285 H       
  36 H36            3.2860    11.3713    -2.5268 H       
  37 H37            5.1936    11.8128    -4.0593 H       
  38 H38            7.1255    10.2919    -4.0515 H       
  39 H39           -1.6515     2.2732     1.0499 H       
  40 H40           -1.2307     3.0618    -0.4894 H       
  41 H41           -2.0869     1.5014    -0.4938 H       
@<TRIPOS>BOND
   1    1    2 ar
   2    1    6 ar
   3    1   22 1
   4    2    3 ar
   5    2   23 1
   6    3    4 ar
   7    3   24 1
   8    4    5 ar
   9    4   25 1
  10    5    6 ar
  11    5    7 1
  12    7    8 3
  13    8    9 1
  14    9   13 2
  15    9   26 1
  16   10   11 1
  17   10   15 1
  18   10   16 1
  19   11   12 1
  20   11   27 1
  21   11   28 1
  22   12   13 1
  23   12   29 1
  24   12   30 1
  25   13   14 1
  26   14   15 1
  27   14   31 1
  28   14   32 1
  29   15   33 1
  30   15   34 1
  31   16   17 ar
  32   16   21 ar
  33   17   18 ar
  34   17   35 1
  35   18   19 ar
  36   18   36 1
  37   19   20 ar
  38   19   37 1
  39   20   21 ar
  40   20   38 1
  41   22   39 1
  42   22   40 1
  43   22   41 1

#	End of record

