#	Name: ASD01812844
#	Creating user name:	WinNT
#	Creation time:	15. 06. 2019 19:29

#	Modifying user name:	WinNT
#	Modification time:	15. 06. 2019 19:29

#	Program:	/corina/corina34_cracker 3.40 0067  02.08.2006

@<TRIPOS>MOLECULE
ASD01812844
  53   57    0    0    0
SMALL
NO_CHARGES


@<TRIPOS>ATOM
   1 N1             0.0027     1.3186    -0.2239 N.ar    
   2 C2             0.0320     0.0060    -0.3480 C.ar    
   3 C3             1.2341    -0.6841    -0.3701 C.ar    
   4 C4             2.4113     0.0207    -0.2601 C.ar    
   5 C5             2.3614     1.4133    -0.1291 C.ar    
   6 C6             1.1073     2.0396    -0.1150 C.ar    
   7 C7             3.8682    -0.3579    -0.2433 C.3     
   8 N8             4.6151     0.8976    -0.0964 N.am    
   9 C9             3.7394     1.9164    -0.0311 C.2     
  10 C10            6.0735     1.0204    -0.0309 C.3     
  11 C11            6.6257     1.1968    -1.4220 C.ar    
  12 C12            6.7731     2.4673    -1.9488 C.ar    
  13 C13            7.2783     2.6347    -3.2222 C.ar    
  14 C14            7.6401     1.5209    -3.9775 C.ar    
  15 C15            7.4894     0.2434    -3.4417 C.ar    
  16 C16            6.9885     0.0880    -2.1651 C.ar    
  17 O17            1.0258     3.3856     0.0104 O.3     
  18 O18            4.0441     3.0871     0.0910 O.2     
  19 C19           -0.2010     3.9612    -0.0793 C.ar    
  20 C20           -0.6465     4.4557    -1.2981 C.ar    
  21 C21           -1.8904     5.0409    -1.3938 C.ar    
  22 C22           -2.7051     5.1367    -0.2629 C.ar    
  23 C23           -2.2547     4.6378     0.9628 C.ar    
  24 C24           -1.0108     4.0488     1.0494 C.ar    
  25 C25           -3.9980     5.7447    -0.3590 C.1     
  26 F26           -0.5758     3.5611     2.2318 F       
  27 C27            8.1833     1.6946    -5.3471 C.ar    
  28 C28            8.3409     2.9685    -5.9008 C.ar    
  29 C29            8.8496     3.0849    -7.1779 C.ar    
  30 N30            9.1850     2.0151    -7.8734 N.ar    
  31 C31            9.0522     0.7957    -7.3881 C.ar    
  32 C32            8.5567     0.5895    -6.1167 C.ar    
  33 C33            9.4528    -0.3876    -8.2308 C.3     
  34 N34           -5.0237     6.2270    -0.4352 N.1     
  35 H35           -0.8958    -0.5403    -0.4334 H       
  36 H36            1.2468    -1.7592    -0.4718 H       
  37 H37            4.0744    -1.0175     0.5996 H       
  38 H38            4.1390    -0.8479    -1.1785 H       
  39 H39            6.3384     1.8851     0.5775 H       
  40 H40            6.4943     0.1194     0.4154 H       
  41 H41            6.4921     3.3298    -1.3627 H       
  42 H42            7.3927     3.6271    -3.6327 H       
  43 H43            7.7682    -0.6233    -4.0227 H       
  44 H44            6.8754    -0.9015    -1.7472 H       
  45 H45           -0.0169     4.3817    -2.1724 H       
  46 H46           -2.2351     5.4256    -2.3423 H       
  47 H47           -2.8814     4.7098     1.8394 H       
  48 H48            8.0681     3.8485    -5.3373 H       
  49 H49            8.9747     4.0649    -7.6143 H       
  50 H50            8.4552    -0.4113    -5.7237 H       
  51 H51           10.5014    -0.6239    -8.0503 H       
  52 H52            8.8361    -1.2469    -7.9672 H       
  53 H53            9.3105    -0.1480    -9.2846 H       
@<TRIPOS>BOND
   1    1    2 ar
   2    1    6 ar
   3    2    3 ar
   4    2   35 1
   5    3    4 ar
   6    3   36 1
   7    4    7 1
   8    4    5 ar
   9    5    6 ar
  10    5    9 1
  11    6   17 1
  12    7    8 1
  13    7   37 1
  14    7   38 1
  15    8    9 am
  16    8   10 1
  17    9   18 2
  18   10   11 1
  19   10   39 1
  20   10   40 1
  21   11   12 ar
  22   11   16 ar
  23   12   13 ar
  24   12   41 1
  25   13   14 ar
  26   13   42 1
  27   14   15 ar
  28   14   27 1
  29   15   16 ar
  30   15   43 1
  31   16   44 1
  32   17   19 1
  33   19   20 ar
  34   19   24 ar
  35   20   21 ar
  36   20   45 1
  37   21   22 ar
  38   21   46 1
  39   22   23 ar
  40   22   25 1
  41   23   24 ar
  42   23   47 1
  43   24   26 1
  44   25   34 3
  45   27   28 ar
  46   27   32 ar
  47   28   29 ar
  48   28   48 1
  49   29   30 ar
  50   29   49 1
  51   30   31 ar
  52   31   32 ar
  53   31   33 1
  54   32   50 1
  55   33   51 1
  56   33   52 1
  57   33   53 1

#	End of record

