#	Name: ASD05213036
#	Creating user name:	WinNT
#	Creation time:	15. 06. 2019 20:57

#	Modifying user name:	WinNT
#	Modification time:	15. 06. 2019 20:57

#	Program:	/corina/corina34_cracker 3.40 0067  02.08.2006

@<TRIPOS>MOLECULE
ASD05213036
  39   43    0    0    0
SMALL
NO_CHARGES


@<TRIPOS>ATOM
   1 S1             0.0846     1.6826    -0.7254 S.3     
   2 C2             0.1557    -0.0779    -0.7185 C.2     
   3 N3            -0.8384    -0.8558    -0.9806 N.2     
   4 C4            -0.6268    -2.1861    -0.9351 C.ar    
   5 C5             0.6891    -2.5161    -0.5976 C.ar    
   6 S6             1.5943    -1.0231    -0.3608 S.3     
   7 C7            -1.5401    -3.2340    -1.1786 C.ar    
   8 C8            -1.1385    -4.5424    -1.0839 C.ar    
   9 C9             0.1711    -4.8568    -0.7474 C.ar    
  10 C10            1.0803    -3.8496    -0.5061 C.ar    
  11 C11            1.7508     2.0578    -0.2922 C.2     
  12 N12            2.2883     3.3046    -0.1451 N.pl3   
  13 C13            3.6055     3.1035     0.1946 C.2     
  14 N14            3.7988     1.8052     0.2363 N.2     
  15 N15            2.7060     1.1901    -0.0451 N.2     
  16 C16            4.6135     4.1507     0.4617 C.ar    
  17 Cl17           0.6631    -6.5175    -0.6306 Cl      
  18 C18            1.6042     4.5890    -0.3147 C.3     
  19 C19            4.2047     5.4441     0.7424 C.ar    
  20 C20            5.1680     6.4309     0.9950 C.ar    
  21 C21            6.5449     6.0953     0.9607 C.ar    
  22 C22            6.9267     4.7715     0.6727 C.ar    
  23 C23            5.9817     3.8268     0.4352 C.ar    
  24 C24            4.7952     7.7584     1.2840 C.ar    
  25 C25            5.7853     8.6691     1.5198 C.ar    
  26 C26            7.1200     8.2725     1.4704 C.ar    
  27 N27            7.4633     7.0363     1.2008 N.ar    
  28 H28           -2.5623    -3.0044    -1.4410 H       
  29 H29           -1.8476    -5.3349    -1.2724 H       
  30 H30            2.0990    -4.0952    -0.2444 H       
  31 H31            1.2700     4.9536     0.6566 H       
  32 H32            2.2908     5.3107    -0.7572 H       
  33 H33            0.7429     4.4581    -0.9697 H       
  34 H34            3.1534     5.6903     0.7661 H       
  35 H35            7.9732     4.5063     0.6439 H       
  36 H36            6.2849     2.8139     0.2152 H       
  37 H37            3.7553     8.0480     1.3177 H       
  38 H38            5.5340     9.6952     1.7439 H       
  39 H39            7.8926     9.0033     1.6587 H       
@<TRIPOS>BOND
   1    1    2 1
   2    1   11 1
   3    2    3 2
   4    2    6 1
   5    3    4 1
   6    4    5 ar
   7    4    7 ar
   8    5    6 1
   9    5   10 ar
  10    7    8 ar
  11    7   28 1
  12    8    9 ar
  13    8   29 1
  14    9   10 ar
  15    9   17 1
  16   10   30 1
  17   11   12 1
  18   11   15 2
  19   12   13 1
  20   12   18 1
  21   13   14 2
  22   13   16 1
  23   14   15 1
  24   16   19 ar
  25   16   23 ar
  26   18   31 1
  27   18   32 1
  28   18   33 1
  29   19   20 ar
  30   19   34 1
  31   20   21 ar
  32   20   24 ar
  33   21   22 ar
  34   21   27 ar
  35   22   23 ar
  36   22   35 1
  37   23   36 1
  38   24   25 ar
  39   24   37 1
  40   25   26 ar
  41   25   38 1
  42   26   27 ar
  43   26   39 1

#	End of record

