#	Name: ASD04910482
#	Creating user name:	WinNT
#	Creation time:	15. 06. 2019 20:56

#	Modifying user name:	WinNT
#	Modification time:	15. 06. 2019 20:56

#	Program:	/corina/corina34_cracker 3.40 0067  02.08.2006

@<TRIPOS>MOLECULE
ASD04910482
  65   68    0    0    0
SMALL
NO_CHARGES


@<TRIPOS>ATOM
   1 C1             0.7679     1.4217     0.7653 C.2     
   2 C2             0.6853    -0.0795     0.6613 C.3     
   3 C3             2.0931    -0.6581     0.5056 C.3     
   4 O4             1.8425     1.9722     0.7194 O.2     
   5 O5            -0.3528     2.1475     0.9031 O.3     
   6 C6             3.1376    -2.8459     0.2605 C.2     
   7 C7             3.0566    -4.3186     0.1586 C.ar    
   8 C8             4.2195    -5.0759     0.0093 C.ar    
   9 C9             4.1369    -6.4497    -0.0847 C.ar    
  10 C10            2.9048    -7.0770    -0.0319 C.ar    
  11 C11            1.7482    -6.3322     0.1159 C.ar    
  12 C12            1.8173    -4.9581     0.2169 C.ar    
  13 O13            4.2186    -2.2920     0.2144 O.2     
  14 N14            2.0128    -2.1174     0.4046 N.am    
  15 C15            2.8222    -8.5782    -0.1363 C.3     
  16 N16            1.8135    -9.0781     0.8011 N.pl3   
  17 C17            3.4217    -8.9968     2.6058 C.ar    
  18 C18            2.1599    -9.3300     2.1325 C.ar    
  19 C19            1.2429    -9.9184     3.0011 C.ar    
  20 C20            1.6294   -10.1486     4.3097 C.ar    
  21 C21            2.9092    -9.7881     4.7114 C.ar    
  22 N22            3.7545    -9.2312     3.8599 N.ar    
  23 C23            2.5954   -10.6607     6.9936 C.2     
  24 N24            3.2971   -10.6746     8.0938 N.2     
  25 C25            4.4659   -10.0510     7.8837 C.2     
  26 C26            4.4952    -9.6320     6.6045 C.2     
  27 N27            3.3091   -10.0166     6.0334 N.pl3   
  28 C28            5.5577    -9.8531     8.9035 C.3     
  29 F29            5.2189   -10.5212    10.0850 F       
  30 F30            6.7598   -10.3669     8.4055 F       
  31 F31            5.7078    -8.4873     9.1668 F       
  32 C32            2.4312    -8.9694    -1.5628 C.3     
  33 C33            2.2150   -10.4804    -1.7498 C.3     
  34 C34            1.0164   -10.1187    -2.6427 C.3     
  35 C35            0.9321    -8.7979    -1.8597 C.3     
  36 F36            1.3520    -9.9508    -3.9904 F       
  37 F37           -0.0921   -10.9519    -2.4573 F       
  38 C38           -0.1976     3.5882     0.9972 C.3     
  39 C39           -1.5733     4.2404     1.1489 C.3     
  40 H40            0.2251    -0.4814     1.5640 H       
  41 H41            0.0829    -0.3511    -0.2055 H       
  42 H42            2.5533    -0.2562    -0.3971 H       
  43 H43            2.6955    -0.3865     1.3724 H       
  44 H44            5.1818    -4.5874    -0.0328 H       
  45 H45            5.0360    -7.0369    -0.2002 H       
  46 H46            0.7896    -6.8280     0.1564 H       
  47 H47            0.9141    -4.3781     0.3367 H       
  48 H48            1.1501    -2.5594     0.4413 H       
  49 H49            3.7916    -9.0132     0.1070 H       
  50 H50            0.9052    -9.2343     0.4984 H       
  51 H51            4.1401    -8.5445     1.9382 H       
  52 H52            0.2539   -10.1881     2.6612 H       
  53 H53            0.9441   -10.6025     5.0103 H       
  54 H54            1.6139   -11.0929     6.8662 H       
  55 H55            5.2985    -9.0961     6.1209 H       
  56 H56            3.0807    -8.5246    -2.3168 H       
  57 H57            3.0254   -10.9744    -2.2859 H       
  58 H58            1.9355   -10.9984    -0.8324 H       
  59 H59            0.3019    -8.8559    -0.9722 H       
  60 H60            0.7068    -7.9336    -2.4844 H       
  61 H61            0.4174     3.8316     1.8635 H       
  62 H62            0.2838     3.9615     0.0933 H       
  63 H63           -1.4569     5.3219     1.2195 H       
  64 H64           -2.1884     3.9970     0.2826 H       
  65 H65           -2.0547     3.8671     2.0528 H       
@<TRIPOS>BOND
   1    1    2 1
   2    1    4 2
   3    1    5 1
   4    2    3 1
   5    2   40 1
   6    2   41 1
   7    3   14 1
   8    3   42 1
   9    3   43 1
  10    5   38 1
  11    6    7 1
  12    6   13 2
  13    6   14 am
  14    7    8 ar
  15    7   12 ar
  16    8    9 ar
  17    8   44 1
  18    9   10 ar
  19    9   45 1
  20   10   11 ar
  21   10   15 1
  22   11   12 ar
  23   11   46 1
  24   12   47 1
  25   14   48 1
  26   15   16 1
  27   15   32 1
  28   15   49 1
  29   16   18 1
  30   16   50 1
  31   17   18 ar
  32   17   22 ar
  33   17   51 1
  34   18   19 ar
  35   19   20 ar
  36   19   52 1
  37   20   21 ar
  38   20   53 1
  39   21   22 ar
  40   21   27 1
  41   23   24 2
  42   23   27 1
  43   23   54 1
  44   24   25 1
  45   25   26 2
  46   25   28 1
  47   26   27 1
  48   26   55 1
  49   28   29 1
  50   28   30 1
  51   28   31 1
  52   32   33 1
  53   32   35 1
  54   32   56 1
  55   33   34 1
  56   33   57 1
  57   33   58 1
  58   34   35 1
  59   34   36 1
  60   34   37 1
  61   35   59 1
  62   35   60 1
  63   38   39 1
  64   38   61 1
  65   38   62 1
  66   39   63 1
  67   39   64 1
  68   39   65 1

#	End of record

