#	Name: ASD01882861
#	Creating user name:	WinNT
#	Creation time:	15. 06. 2019 19:45

#	Modifying user name:	WinNT
#	Modification time:	15. 06. 2019 19:45

#	Program:	/corina/corina34_cracker 3.40 0067  02.08.2006

@<TRIPOS>MOLECULE
ASD01882861
  38   39    0    0    0
SMALL
NO_CHARGES


@<TRIPOS>ATOM
   1 C1            -0.1076     1.1868    -0.0042 C.ar    
   2 C2             0.1282    -0.1793    -0.0622 C.ar    
   3 C3             1.4246    -0.6558    -0.0635 C.ar    
   4 C4             2.4872     0.2274    -0.0064 C.ar    
   5 C5             2.2549     1.5889     0.0515 C.ar    
   6 C6             0.9600     2.0706     0.0525 C.ar    
   7 O7            -1.3821     1.6583    -0.0085 O.3     
   8 C8             1.6813    -2.1395    -0.1265 C.3     
   9 C9             1.1769    -2.7994     1.1583 C.3     
  10 C10            0.9445    -2.7339    -1.3284 C.3     
  11 C11            3.9006    -0.2953    -0.0069 C.3     
  12 C12            4.6013     0.1303    -1.2988 C.3     
  13 C13            6.0363    -0.4004    -1.2993 C.3     
  14 C14            6.7916     0.1706    -0.0974 C.3     
  15 C15            6.0909    -0.2550     1.1944 C.3     
  16 C16            4.6559     0.2757     1.1949 C.3     
  17 H17           -0.7014    -0.8695    -0.1061 H       
  18 H18            3.0865     2.2767     0.0960 H       
  19 H19            0.7791     3.1344     0.0974 H       
  20 H20           -1.7690     1.7542     0.8726 H       
  21 H21            2.7513    -2.3189    -0.2313 H       
  22 H22            0.1069    -2.6200     1.2631 H       
  23 H23            1.3626    -3.8725     1.1127 H       
  24 H24            1.7019    -2.3759     2.0146 H       
  25 H25            1.3038    -2.2638    -2.2438 H       
  26 H26            1.1302    -3.8070    -1.3740 H       
  27 H27           -0.1256    -2.5545    -1.2237 H       
  28 H28            3.8857    -1.3833     0.0568 H       
  29 H29            4.0632    -0.2765    -2.1550 H       
  30 H30            4.6162     1.2183    -1.3625 H       
  31 H31            6.0214    -1.4884    -1.2355 H       
  32 H32            6.5355    -0.0972    -2.2196 H       
  33 H33            7.8140    -0.2074    -0.0978 H       
  34 H34            6.8066     1.2587    -0.1612 H       
  35 H35            6.0760    -1.3430     1.2582 H       
  36 H36            6.6290     0.1518     2.0506 H       
  37 H37            4.6709     1.3637     1.1311 H       
  38 H38            4.1567    -0.0275     2.1152 H       
@<TRIPOS>BOND
   1    1    2 ar
   2    1    6 ar
   3    1    7 1
   4    2    3 ar
   5    2   17 1
   6    3    4 ar
   7    3    8 1
   8    4    5 ar
   9    4   11 1
  10    5    6 ar
  11    5   18 1
  12    6   19 1
  13    7   20 1
  14    8    9 1
  15    8   10 1
  16    8   21 1
  17    9   22 1
  18    9   23 1
  19    9   24 1
  20   10   25 1
  21   10   26 1
  22   10   27 1
  23   11   12 1
  24   11   16 1
  25   11   28 1
  26   12   13 1
  27   12   29 1
  28   12   30 1
  29   13   14 1
  30   13   31 1
  31   13   32 1
  32   14   15 1
  33   14   33 1
  34   14   34 1
  35   15   16 1
  36   15   35 1
  37   15   36 1
  38   16   37 1
  39   16   38 1

#	End of record

