#	Name: ASD03910023
#	Creating user name:	WinNT
#	Creation time:	15. 06. 2019 20:47

#	Modifying user name:	WinNT
#	Modification time:	15. 06. 2019 20:47

#	Program:	/corina/corina34_cracker 3.40 0067  02.08.2006

@<TRIPOS>MOLECULE
ASD03910023
  56   59    0    0    0
SMALL
NO_CHARGES


@<TRIPOS>ATOM
   1 C1             0.1582     0.7867    -0.4118 C.ar    
   2 C2             0.1849    -0.3850    -1.1456 C.ar    
   3 C3            -0.9656    -0.8345    -1.7736 C.ar    
   4 C4            -2.1403    -0.1181    -1.6709 C.ar    
   5 C5            -2.1702     1.0591    -0.9345 C.ar    
   6 C6            -1.0166     1.5108    -0.3100 C.ar    
   7 N7            -3.3585     1.7900    -0.8273 N.am    
   8 C8            -4.5427     1.1480    -0.7817 C.2     
   9 C9            -5.8136     1.9262    -0.5580 C.3     
  10 O10           -4.5855    -0.0562    -0.9206 O.2     
  11 C11           -6.9869     0.9805    -0.5497 C.ar    
  12 C12           -7.4023     0.4065     0.6377 C.ar    
  13 C13           -8.4775    -0.4607     0.6480 C.ar    
  14 C14           -9.1408    -0.7555    -0.5344 C.ar    
  15 C15           -8.7221    -0.1783    -1.7244 C.ar    
  16 C16           -7.6498     0.6927    -1.7285 C.ar    
  17 O17          -10.1985    -1.6087    -0.5269 O.3     
  18 C18          -10.9086    -1.7725    -1.7562 C.3     
  19 C19          -11.3661    -0.4362    -2.2816 C.2     
  20 C20          -10.0218    -2.4918    -2.8027 C.3     
  21 C21          -10.1576    -3.9812    -2.4000 C.3     
  22 C22          -11.6330    -4.1245    -1.9727 C.3     
  23 C23          -12.1125    -2.7174    -1.5625 C.3     
  24 O24          -11.3769    -0.2265    -3.4715 O.2     
  25 O25          -11.7615     0.5210    -1.4278 O.3     
  26 C26           -9.8555    -4.8886    -3.5943 C.3     
  27 C27            1.5297     1.0580     0.1689 C.3     
  28 C28            2.2801    -0.2877     0.0783 C.3     
  29 C29            1.5763    -0.9804    -1.1078 C.3     
  30 H30           -0.9426    -1.7497    -2.3466 H       
  31 H31           -3.0346    -0.4719    -2.1623 H       
  32 H32           -1.0374     2.4260     0.2632 H       
  33 H33           -3.3301     2.7587    -0.7858 H       
  34 H34           -5.7583     2.4450     0.3990 H       
  35 H35           -5.9396     2.6544    -1.3593 H       
  36 H36           -6.8854     0.6361     1.5577 H       
  37 H37           -8.8014    -0.9091     1.5756 H       
  38 H38           -9.2368    -0.4062    -2.6461 H       
  39 H39           -7.3234     1.1424    -2.6546 H       
  40 H40          -10.4034    -2.3278    -3.8105 H       
  41 H41           -8.9857    -2.1629    -2.7225 H       
  42 H42           -9.4948    -4.2130    -1.5663 H       
  43 H43          -12.2293    -4.4931    -2.8073 H       
  44 H44          -11.7120    -4.8072    -1.1266 H       
  45 H45          -12.4234    -2.7187    -0.5178 H       
  46 H46          -12.9407    -2.4050    -2.1985 H       
  47 H47          -12.0463     1.3616    -1.8119 H       
  48 H48           -8.8381    -4.7067    -3.9406 H       
  49 H49           -9.9558    -5.9313    -3.2930 H       
  50 H50          -10.5574    -4.6741    -4.4002 H       
  51 H51            2.0451     1.8186    -0.4176 H       
  52 H52            1.4445     1.3743     1.2085 H       
  53 H53            3.3366    -0.1284    -0.1374 H       
  54 H54            2.1533    -0.8644     0.9945 H       
  55 H55            1.5229    -2.0561    -0.9400 H       
  56 H56            2.1041    -0.7676    -2.0374 H       
@<TRIPOS>BOND
   1    1    2 ar
   2    1   27 1
   3    1    6 ar
   4    2    3 ar
   5    2   29 1
   6    3    4 ar
   7    3   30 1
   8    4    5 ar
   9    4   31 1
  10    5    6 ar
  11    5    7 1
  12    6   32 1
  13    7    8 am
  14    7   33 1
  15    8    9 1
  16    8   10 2
  17    9   11 1
  18    9   34 1
  19    9   35 1
  20   11   12 ar
  21   11   16 ar
  22   12   13 ar
  23   12   36 1
  24   13   14 ar
  25   13   37 1
  26   14   15 ar
  27   14   17 1
  28   15   16 ar
  29   15   38 1
  30   16   39 1
  31   17   18 1
  32   18   19 1
  33   18   20 1
  34   18   23 1
  35   19   24 2
  36   19   25 1
  37   20   21 1
  38   20   40 1
  39   20   41 1
  40   21   22 1
  41   21   26 1
  42   21   42 1
  43   22   23 1
  44   22   43 1
  45   22   44 1
  46   23   45 1
  47   23   46 1
  48   25   47 1
  49   26   48 1
  50   26   49 1
  51   26   50 1
  52   27   28 1
  53   27   51 1
  54   27   52 1
  55   28   29 1
  56   28   53 1
  57   28   54 1
  58   29   55 1
  59   29   56 1

#	End of record

