#	Name: ASD01411069
#	Creating user name:	WinNT
#	Creation time:	15. 06. 2019 19:19

#	Modifying user name:	WinNT
#	Modification time:	15. 06. 2019 19:19

#	Program:	/corina/corina34_cracker 3.40 0067  02.08.2006

@<TRIPOS>MOLECULE
ASD01411069
  44   47    0    0    0
SMALL
NO_CHARGES


@<TRIPOS>ATOM
   1 C1             1.0943     1.3838     1.1969 C.ar    
   2 C2             1.1103     0.0029     1.1873 C.ar    
   3 C3             1.1769     2.0866     0.0020 C.ar    
   4 C4             1.2085    -0.6808    -0.0106 C.ar    
   5 C5             1.2755     1.3986    -1.1994 C.ar    
   6 N6             1.1604     3.4878     0.0092 N.am    
   7 C7             1.2911     0.0162    -1.2032 C.ar    
   8 C8            -0.0218     4.1359    -0.0735 C.2     
   9 C9             2.3194     4.1585     0.1038 C.2     
  10 Cl10           1.4142    -0.8459    -2.7050 Cl      
  11 C11           -0.0125     5.6096    -0.0654 C.ar    
  12 O12           -1.0668     3.5193    -0.1530 O.2     
  13 N13            2.3839     5.5006     0.1178 N.am    
  14 O14            3.3542     3.5250     0.1804 O.2     
  15 C15            1.2253     6.2644     0.0285 C.ar    
  16 C16           -1.1892     6.3524    -0.1474 C.ar    
  17 C17            1.2726     7.6558     0.0375 C.ar    
  18 C18           -1.1274     7.7303    -0.1358 C.ar    
  19 C19            0.0932     8.3802    -0.0445 C.ar    
  20 C20            3.6811     6.1780     0.2283 C.3     
  21 N21            2.4995     8.3209     0.1271 N.3     
  22 C22            3.4729     7.5366     0.9046 C.3     
  23 C23            2.3306     9.6613     0.7041 C.3     
  24 C24            3.7040    10.2585     1.0172 C.3     
  25 C25            3.5282    11.6545     1.6182 C.3     
  26 O26            4.8110    12.2122     1.9106 O.3     
  27 H27            1.0131     1.9167     2.1327 H       
  28 H28            1.0464    -0.5437     2.1166 H       
  29 H29            1.2212    -1.7607    -0.0154 H       
  30 H30            1.3395     1.9426    -2.1303 H       
  31 H31           -2.1436     5.8520    -0.2200 H       
  32 H32           -2.0380     8.3076    -0.1991 H       
  33 H33            0.1259     9.4596    -0.0364 H       
  34 H34            4.3599     5.5717     0.8281 H       
  35 H35            4.1021     6.3257    -0.7662 H       
  36 H36            3.0972     7.3919     1.9175 H       
  37 H37            4.4229     8.0698     0.9415 H       
  38 H38            1.8103    10.3009    -0.0088 H       
  39 H39            1.7472     9.5908     1.6221 H       
  40 H40            4.2244     9.6189     1.7302 H       
  41 H41            4.2875    10.3289     0.0992 H       
  42 H42            3.0079    12.2941     0.9052 H       
  43 H43            2.9448    11.5840     2.5362 H       
  44 H44            4.7760    13.0987     2.2952 H       
@<TRIPOS>BOND
   1    1    2 ar
   2    1    3 ar
   3    1   27 1
   4    2    4 ar
   5    2   28 1
   6    3    5 ar
   7    3    6 1
   8    4    7 ar
   9    4   29 1
  10    5    7 ar
  11    5   30 1
  12    6    9 am
  13    6    8 am
  14    7   10 1
  15    8   11 1
  16    8   12 2
  17    9   13 am
  18    9   14 2
  19   11   15 ar
  20   11   16 ar
  21   13   20 1
  22   13   15 1
  23   15   17 ar
  24   16   18 ar
  25   16   31 1
  26   17   21 1
  27   17   19 ar
  28   18   19 ar
  29   18   32 1
  30   19   33 1
  31   20   22 1
  32   20   34 1
  33   20   35 1
  34   21   22 1
  35   21   23 1
  36   22   36 1
  37   22   37 1
  38   23   24 1
  39   23   38 1
  40   23   39 1
  41   24   25 1
  42   24   40 1
  43   24   41 1
  44   25   26 1
  45   25   42 1
  46   25   43 1
  47   26   44 1

#	End of record

