#	Name: ASD02198037
#	Creating user name:	WinNT
#	Creation time:	15. 06. 2019 20:18

#	Modifying user name:	WinNT
#	Modification time:	15. 06. 2019 20:18

#	Program:	/corina/corina34_cracker 3.40 0067  02.08.2006

@<TRIPOS>MOLECULE
ASD02198037
  40   42    0    0    0
SMALL
NO_CHARGES


@<TRIPOS>ATOM
   1 C1             0.5460     1.3772    -0.6349 C.2     
   2 C2             0.4598     0.0039    -0.5466 C.2     
   3 C3            -0.7731    -0.6877    -0.3178 C.1     
   4 S4             2.1549     1.8687    -0.9121 S.3     
   5 C5             2.7314     0.2097    -0.9114 C.2     
   6 C6             1.6803    -0.6503    -0.7009 C.2     
   7 C7             4.0717    -0.1812    -1.0991 C.2     
   8 O8             4.3904    -1.3507    -0.9643 O.2     
   9 C9             5.0918     0.8260    -1.4594 C.ar    
  10 N10            1.8202    -2.0287    -0.6475 N.pl3   
  11 N11           -0.5236     2.2354    -0.5205 N.pl3   
  12 N12           -1.7511    -1.2364    -0.1363 N.1     
  13 C13           -0.3123     3.6166    -0.5012 C.ar    
  14 C14           -1.2278     4.4695    -1.1049 C.ar    
  15 C15           -1.0161     5.8340    -1.0835 C.ar    
  16 C16            0.1057     6.3516    -0.4621 C.ar    
  17 C17            1.0193     5.5054     0.1394 C.ar    
  18 C18            0.8108     4.1403     0.1267 C.ar    
  19 C19            6.4172     0.6566    -1.0526 C.ar    
  20 C20            7.3650     1.5974    -1.3903 C.ar    
  21 C21            7.0039     2.7139    -2.1348 C.ar    
  22 C22            5.6861     2.8861    -2.5410 C.ar    
  23 C23            4.7339     1.9466    -2.2124 C.ar    
  24 O24            7.9408     3.6389    -2.4657 O.3     
  25 C25            7.5012     4.7620    -3.2322 C.3     
  26 H26            2.6948    -2.4322    -0.7616 H       
  27 H27            1.0434    -2.5895    -0.4960 H       
  28 H28           -1.4243     1.8815    -0.4534 H       
  29 H29           -2.1039     4.0659    -1.5906 H       
  30 H30           -1.7272     6.4976    -1.5529 H       
  31 H31            0.2688     7.4191    -0.4468 H       
  32 H32            1.8945     5.9130     0.6235 H       
  33 H33            1.5245     3.4801     0.5970 H       
  34 H34            6.6985    -0.2106    -0.4738 H       
  35 H35            8.3900     1.4673    -1.0758 H       
  36 H36            5.4091     3.7555    -3.1188 H       
  37 H37            3.7101     2.0809    -2.5287 H       
  38 H38            7.0847     4.4157    -4.1780 H       
  39 H39            6.7372     5.3050    -2.6758 H       
  40 H40            8.3465     5.4219    -3.4273 H       
@<TRIPOS>BOND
   1    1    2 2
   2    1    4 1
   3    1   11 1
   4    2    3 1
   5    2    6 1
   6    3   12 3
   7    4    5 1
   8    5    6 2
   9    5    7 1
  10    6   10 1
  11    7    8 2
  12    7    9 1
  13    9   19 ar
  14    9   23 ar
  15   10   26 1
  16   10   27 1
  17   11   13 1
  18   11   28 1
  19   13   14 ar
  20   13   18 ar
  21   14   15 ar
  22   14   29 1
  23   15   16 ar
  24   15   30 1
  25   16   17 ar
  26   16   31 1
  27   17   18 ar
  28   17   32 1
  29   18   33 1
  30   19   20 ar
  31   19   34 1
  32   20   21 ar
  33   20   35 1
  34   21   22 ar
  35   21   24 1
  36   22   23 ar
  37   22   36 1
  38   23   37 1
  39   24   25 1
  40   25   38 1
  41   25   39 1
  42   25   40 1

#	End of record

