#	Name: ASD03090211
#	Creating user name:	WinNT
#	Creation time:	15. 06. 2019 20:28

#	Modifying user name:	WinNT
#	Modification time:	15. 06. 2019 20:28

#	Program:	/corina/corina34_cracker 3.40 0067  02.08.2006

@<TRIPOS>MOLECULE
ASD03090211
  48   51    0    0    0
SMALL
NO_CHARGES


@<TRIPOS>ATOM
   1 N1             0.4440     1.5089     1.4733 N.ar    
   2 C2             0.4073     0.1907     1.4395 C.ar    
   3 C3             1.5344    -0.5417     1.1279 C.ar    
   4 C4             2.7262     0.1345     0.8458 C.ar    
   5 C5             2.7192     1.5327     0.8934 C.ar    
   6 C6             1.5465     2.1852     1.2140 C.ar    
   7 C7             3.9605    -0.6088     0.5069 C.2     
   8 N8             5.7410    -3.4558    -0.5312 N.pl3   
   9 C9             4.8142    -4.4462    -0.8767 C.ar    
  10 C10            3.5985    -4.0913    -1.4458 C.ar    
  11 C11            2.6826    -5.0684    -1.7879 C.ar    
  12 C12            2.9744    -6.4037    -1.5639 C.ar    
  13 C13            4.1933    -6.7630    -0.9930 C.ar    
  14 C14            5.1128    -5.7843    -0.6557 C.ar    
  15 N15            4.0255    -1.8646     0.1126 N.2     
  16 C16            5.2972    -2.2029    -0.1043 C.2     
  17 N17            6.0649    -1.1674     0.1485 N.2     
  18 N18            5.2192    -0.1176     0.5418 N.pl3   
  19 C19            5.6222     1.2382     0.9236 C.3     
  20 C20            5.7266     2.1109    -0.3288 C.3     
  21 C21            6.1411     3.5055     0.0639 C.2     
  22 N22            6.2975     4.4534    -0.8814 N.am    
  23 O23            2.2550    -7.5395    -1.8064 O.3     
  24 C24            3.2093    -8.6166    -1.7567 C.3     
  25 O25            4.2373    -8.1226    -0.8780 O.3     
  26 F26            2.6215    -9.7699    -1.2261 F       
  27 F27            3.7309    -8.8703    -3.0297 F       
  28 O28            6.3340     3.7750     1.2306 O.2     
  29 C29            6.7004     5.8092    -0.4996 C.3     
  30 C30            6.0645     4.1280    -2.2906 C.3     
  31 H31           -0.5174    -0.3222     1.6592 H       
  32 H32            1.4972    -1.6208     1.1024 H       
  33 H33            3.6182     2.0928     0.6826 H       
  34 H34            1.5310     3.2644     1.2533 H       
  35 H35            6.6916    -3.6401    -0.5883 H       
  36 H36            3.3682    -3.0508    -1.6209 H       
  37 H37            1.7376    -4.7900    -2.2305 H       
  38 H38            6.0584    -6.0609    -0.2134 H       
  39 H39            4.8795     1.6610     1.6001 H       
  40 H40            6.5902     1.2024     1.4232 H       
  41 H41            6.4693     1.6881    -1.0054 H       
  42 H42            4.7586     2.1467    -0.8285 H       
  43 H43            7.7881     5.8806    -0.5070 H       
  44 H44            6.2844     6.5251    -1.2085 H       
  45 H45            6.3286     6.0306     0.5008 H       
  46 H46            5.7747     3.0809    -2.3786 H       
  47 H47            5.2674     4.7598    -2.6824 H       
  48 H48            6.9781     4.3011    -2.8593 H       
@<TRIPOS>BOND
   1    1    2 ar
   2    1    6 ar
   3    2    3 ar
   4    2   31 1
   5    3    4 ar
   6    3   32 1
   7    4    5 ar
   8    4    7 1
   9    5    6 ar
  10    5   33 1
  11    6   34 1
  12    7   15 2
  13    7   18 1
  14    8    9 1
  15    8   16 1
  16    8   35 1
  17    9   10 ar
  18    9   14 ar
  19   10   11 ar
  20   10   36 1
  21   11   12 ar
  22   11   37 1
  23   12   13 ar
  24   12   23 1
  25   13   14 ar
  26   13   25 1
  27   14   38 1
  28   15   16 1
  29   16   17 2
  30   17   18 1
  31   18   19 1
  32   19   20 1
  33   19   39 1
  34   19   40 1
  35   20   21 1
  36   20   41 1
  37   20   42 1
  38   21   22 am
  39   21   28 2
  40   22   29 1
  41   22   30 1
  42   23   24 1
  43   24   25 1
  44   24   26 1
  45   24   27 1
  46   29   43 1
  47   29   44 1
  48   29   45 1
  49   30   46 1
  50   30   47 1
  51   30   48 1

#	End of record

