#	Name: ASD01340003
#	Creating user name:	WinNT
#	Creation time:	15. 06. 2019 19:16

#	Modifying user name:	WinNT
#	Modification time:	15. 06. 2019 19:16

#	Program:	/corina/corina34_cracker 3.40 0067  02.08.2006

@<TRIPOS>MOLECULE
ASD01340003
  60   63    0    0    0
SMALL
NO_CHARGES


@<TRIPOS>ATOM
   1 C1             0.4043     1.6445    -2.5086 C.ar    
   2 C2             0.2703     0.3174    -2.1454 C.ar    
   3 C3             1.3769    -0.4019    -1.7346 C.ar    
   4 C4             2.6177     0.2056    -1.6874 C.ar    
   5 C5             2.7519     1.5324    -2.0515 C.ar    
   6 C6             1.6451     2.2521    -2.4609 C.ar    
   7 C7             3.8240    -0.5784    -1.2387 C.3     
   8 C8             4.1323    -0.2476     0.2230 C.3     
   9 N9             5.3725    -0.9165     0.6239 N.am    
  10 C10            6.5517    -0.2897     0.4668 C.2     
  11 N11            7.7124    -0.8650     0.8205 N.am    
  12 C12            7.7490    -2.1199     1.3588 C.2     
  13 C13            6.5851    -2.8053     1.5423 C.2     
  14 C14            5.3256    -2.1566     1.1542 C.2     
  15 N15            4.9780    -0.2227    -2.0751 N.3     
  16 O16            6.5675     0.8291    -0.0090 O.2     
  17 C17            9.0658    -2.7419     1.7464 C.3     
  18 C18            8.9655    -0.1318     0.6244 C.3     
  19 O19            4.2616    -2.7299     1.2994 O.2     
  20 C20            6.3868    -6.5522     1.8562 C.ar    
  21 C21            6.3805    -5.2796     1.3055 C.ar    
  22 C22            6.5898    -4.1696     2.1237 C.ar    
  23 C23            6.8041    -4.3469     3.4896 C.ar    
  24 C24            6.8085    -5.6179     4.0283 C.ar    
  25 C25            6.5953    -6.7179     3.2181 C.ar    
  26 O26            6.1832    -7.6373     1.0628 O.3     
  27 C27            8.6821     1.9272     2.0225 C.ar    
  28 C28            8.9602     2.6761     3.1536 C.ar    
  29 C29            9.8266     2.1853     4.1121 C.ar    
  30 C30           10.4163     0.9469     3.9429 C.ar    
  31 C31           10.1397     0.1963     2.8126 C.ar    
  32 C32            9.2677     0.6843     1.8547 C.ar    
  33 F33           10.7171    -1.0138     2.6470 F       
  34 F34            7.8352     2.4072     1.0857 F       
  35 F35            6.1726    -5.1154    -0.0193 F       
  36 C36            6.2029    -8.9177     1.6970 C.3     
  37 H37           -0.4595     2.2052    -2.8338 H       
  38 H38           -0.6991    -0.1572    -2.1822 H       
  39 H39            1.2720    -1.4385    -1.4501 H       
  40 H40            3.7212     2.0072    -2.0140 H       
  41 H41            1.7499     3.2888    -2.7450 H       
  42 H42            3.6205    -1.6449    -1.3347 H       
  43 H43            4.2482     0.8304     0.3350 H       
  44 H44            3.3131    -0.5924     0.8541 H       
  45 H45            4.8246    -0.4907    -3.0357 H       
  46 H46            5.1870     0.7618    -2.0033 H       
  47 H47            9.2785    -2.5202     2.7922 H       
  48 H48            9.0124    -3.8217     1.6074 H       
  49 H49            9.8588    -2.3337     1.1198 H       
  50 H50            9.7764    -0.8387     0.4490 H       
  51 H51            8.8682     0.5303    -0.2359 H       
  52 H52            6.9670    -3.4900     4.1264 H       
  53 H53            6.9750    -5.7533     5.0868 H       
  54 H54            6.5996    -7.7098     3.6452 H       
  55 H55            8.5002     3.6441     3.2867 H       
  56 H56           10.0432     2.7702     4.9938 H       
  57 H57           11.0932     0.5644     4.6925 H       
  58 H58            5.4217    -8.9592     2.4561 H       
  59 H59            6.0279    -9.6946     0.9528 H       
  60 H60            7.1740    -9.0759     2.1661 H       
@<TRIPOS>BOND
   1    1    2 ar
   2    1    6 ar
   3    1   37 1
   4    2    3 ar
   5    2   38 1
   6    3    4 ar
   7    3   39 1
   8    4    5 ar
   9    4    7 1
  10    5    6 ar
  11    5   40 1
  12    6   41 1
  13    7    8 1
  14    7   15 1
  15    7   42 1
  16    8    9 1
  17    8   43 1
  18    8   44 1
  19    9   10 am
  20    9   14 am
  21   10   11 am
  22   10   16 2
  23   11   12 1
  24   11   18 1
  25   12   13 2
  26   12   17 1
  27   13   14 1
  28   13   22 1
  29   14   19 2
  30   15   45 1
  31   15   46 1
  32   17   47 1
  33   17   48 1
  34   17   49 1
  35   18   32 1
  36   18   50 1
  37   18   51 1
  38   20   21 ar
  39   20   26 1
  40   20   25 ar
  41   21   22 ar
  42   21   35 1
  43   22   23 ar
  44   23   24 ar
  45   23   52 1
  46   24   25 ar
  47   24   53 1
  48   25   54 1
  49   26   36 1
  50   27   28 ar
  51   27   34 1
  52   27   32 ar
  53   28   29 ar
  54   28   55 1
  55   29   30 ar
  56   29   56 1
  57   30   31 ar
  58   30   57 1
  59   31   32 ar
  60   31   33 1
  61   36   58 1
  62   36   59 1
  63   36   60 1

#	End of record

