#	Name: ASD06610080
#	Creating user name:	WinNT
#	Creation time:	15. 06. 2019 21:07

#	Modifying user name:	WinNT
#	Modification time:	15. 06. 2019 21:07

#	Program:	/corina/corina34_cracker 3.40 0067  02.08.2006

@<TRIPOS>MOLECULE
ASD06610080
 428  429    0    0    0
SMALL
NO_CHARGES


@<TRIPOS>ATOM
   1 C1             1.4723   -10.4861     4.7507 C.2     
   2 O2             1.4058   -11.6060     5.2114 O.2     
   3 N3             3.8653   -10.8792     4.6626 N.am    
   4 C4             2.8107    -9.9035     4.3762 C.3     
   5 C5             2.8203    -9.5653     2.8841 C.3     
   6 O6             2.4740   -10.7286     2.1298 O.3     
   7 C7            -2.0386    -9.3316     4.6271 C.2     
   8 O8            -1.7529    -8.2494     4.1602 O.2     
   9 N9             0.3485    -9.7646     4.5684 N.am    
  10 C10           -0.9532   -10.3332     4.9268 C.3     
  11 C11           -5.5749    -8.9389     5.4657 C.2     
  12 O12           -5.5466    -9.8572     6.2575 O.2     
  13 N13           -3.3267    -9.6385     4.8781 N.am    
  14 C14           -4.3818    -8.6648     4.5868 C.3     
  15 C15           -4.7929    -8.7824     3.1177 C.3     
  16 O16           -5.3862   -10.0623     2.8901 O.3     
  17 C17           -8.9185    -7.4284     5.9266 C.2     
  18 O18           -8.7407    -6.5760     5.0825 O.2     
  19 N19           -6.6733    -8.1636     5.3719 N.am    
  20 C20           -7.8331    -8.4300     6.2263 C.3     
  21 C21          -12.0332    -6.3556     7.5112 C.2     
  22 O22          -11.8092    -6.9983     8.5150 O.2     
  23 N23          -10.0867    -7.4800     6.5967 N.am    
  24 C24          -11.1419    -6.5063     6.3054 C.3     
  25 C25          -11.9713    -6.9937     5.1157 C.3     
  26 C26          -11.1077    -7.0270     3.8812 C.2     
  27 C27          -10.9094    -8.0932     3.0827 C.2     
  28 N28          -10.0638    -7.6889     2.0851 N.pl3   
  29 C29           -9.7746    -6.3889     2.3088 C.2     
  30 N30          -10.4064    -5.9985     3.3819 N.2     
  31 C31          -15.3087    -4.8897     8.2077 C.2     
  32 O32          -15.5340    -4.6957     7.0319 O.2     
  33 N33          -13.0793    -5.5067     7.4740 N.am    
  34 C34          -13.9458    -5.3602     8.6462 C.3     
  35 C35          -13.3369    -4.3358     9.6057 C.3     
  36 C36          -12.0298    -4.8626    10.1395 C.ar    
  37 C37          -10.8508    -4.5925     9.4703 C.ar    
  38 C38           -9.6517    -5.0757     9.9600 C.ar    
  39 C39           -9.6317    -5.8287    11.1191 C.ar    
  40 C40          -10.8106    -6.0981    11.7888 C.ar    
  41 C41          -12.0091    -5.6112    11.3015 C.ar    
  42 C42          -18.2748    -3.5052     9.8352 C.2     
  43 O43          -17.7038    -3.3848    10.8984 O.2     
  44 N44          -16.2772    -4.6843     9.1223 N.am    
  45 C45          -17.6020    -4.2269     8.6960 C.3     
  46 C46          -18.4497    -5.4322     8.2844 C.3     
  47 C47          -17.8326    -6.0918     7.0494 C.3     
  48 C48          -18.6803    -7.2972     6.6378 C.3     
  49 N49          -18.0894    -7.9287     5.4553 N.pl3   
  50 C50          -18.6816    -9.0385     4.9004 C.2     
  51 N51          -19.7687    -9.5287     5.4264 N.2     
  52 N52          -18.1270    -9.6312     3.7907 N.pl3   
  53 C53          -21.6602    -2.3611    10.6051 C.2     
  54 O54          -22.1330    -2.9394     9.6496 O.2     
  55 N55          -19.5110    -2.9936     9.6725 N.am    
  56 C56          -20.1650    -2.2920    10.7798 C.3     
  57 C57          -19.7198    -0.8282    10.7901 C.3     
  58 C58          -18.2217    -0.7529    11.0917 C.3     
  59 C59          -17.7765     0.7109    11.1019 C.3     
  60 C60          -16.2784     0.7862    11.4035 C.3     
  61 N61          -15.8510     2.1916    11.4133 N.3     
  62 C62          -24.5688    -0.6848    12.0521 C.2     
  63 O63          -23.8807     0.1205    12.6427 O.2     
  64 N64          -22.4721    -1.7802    11.5106 N.am    
  65 C65          -23.9256    -1.8474    11.3408 C.3     
  66 C66          -24.4481    -3.1587    11.9311 C.3     
  67 C67          -23.8919    -4.3366    11.1285 C.3     
  68 C68          -24.4065    -5.6282    11.7100 C.2     
  69 O69          -25.1425    -5.6086    12.6680 O.2     
  70 O70          -24.0471    -6.8004    11.1636 O.3     
  71 C71          -27.9522     0.2340    13.0871 C.2     
  72 O72          -28.3971    -0.8564    12.7973 O.2     
  73 N73          -25.9086    -0.5401    12.0318 N.am    
  74 C74          -26.5338     0.5901    12.7233 C.3     
  75 C75          -26.5347     1.8131    11.8040 C.3     
  76 C76          -25.0934     2.2502    11.5353 C.3     
  77 C77          -25.0943     3.4733    10.6160 C.3     
  78 N78          -23.7142     3.8918    10.3587 N.pl3   
  79 C79          -23.4639     4.9775     9.5531 C.2     
  80 N80          -22.2360     5.3499     9.3242 N.2     
  81 N81          -24.5089     5.6703     8.9890 N.pl3   
  82 C82          -30.9477     2.0906    13.8989 C.2     
  83 O83          -30.3998     3.1453    13.6573 O.2     
  84 N84          -28.7264     1.1273    13.7345 N.am    
  85 C85          -30.1364     0.8240    13.9917 C.3     
  86 C86          -30.2822     0.2265    15.3926 C.3     
  87 C87          -29.6217     1.1545    16.4142 C.3     
  88 C88          -30.4178     2.4576    16.5090 C.3     
  89 C89          -29.6039    -1.1443    15.4355 C.3     
  90 C90          -34.3206     3.0924    14.8903 C.2     
  91 O91          -34.5509     2.0161    15.3996 O.2     
  92 N92          -32.2820     2.0513    14.0844 N.am    
  93 C93          -33.0572     3.2944    14.0941 C.3     
  94 C94          -33.4158     3.6830    12.6583 C.3     
  95 C95          -32.1373     4.0092    11.8838 C.3     
  96 C96          -32.4905     4.3919    10.4697 C.2     
  97 O97          -33.6462     4.4027    10.1175 O.2     
  98 O98          -31.5212     4.7208     9.6013 O.3     
  99 C99          -37.2202     5.1903    15.8205 C.2     
 100 O100         -36.8035     6.1692    15.2383 O.2     
 101 N101         -35.1946     4.1079    15.0365 N.am    
 102 C102         -36.4228     3.9115    15.8105 C.3     
 103 C103         -40.0526     6.4693    17.7605 C.2     
 104 O104         -40.3277     5.4055    18.2738 O.2     
 105 N105         -38.3963     5.2460    16.4763 N.am    
 106 C106         -39.1181     6.5167    16.5792 C.3     
 107 C107         -39.9245     6.7501    15.3001 C.3     
 108 C108         -40.6764     8.0784    15.4065 C.3     
 109 C109         -39.6733     9.2337    15.4068 C.3     
 110 C110         -41.6233     8.2254    14.2137 C.3     
 111 C111         -42.4179     8.7803    19.3187 C.2     
 112 O112         -42.2633     9.6123    18.4498 O.2     
 113 N113         -40.5826     7.6092    18.2466 N.am    
 114 C114         -41.5372     7.5580    19.3567 C.3     
 115 C115         -40.7754     7.5194    20.6830 C.3     
 116 C116         -39.9774     6.2172    20.7751 C.3     
 117 C117         -39.2157     6.1786    22.1014 C.3     
 118 N118         -38.4516     4.9317    22.1896 N.pl3   
 119 C119         -37.6838     4.6730    23.3003 C.2     
 120 N120         -37.6358     5.5371    24.2750 N.2     
 121 N121         -36.9668     3.5029    23.3830 N.pl3   
 122 C122         -44.7599    10.4202    21.5965 C.2     
 123 O123         -44.4506     9.7002    22.5222 O.2     
 124 N124         -43.3772     8.9489    20.2502 N.am    
 125 C125         -44.2333    10.1372    20.2132 C.3     
 126 C126         -45.4059     9.8915    19.2615 C.3     
 127 C127         -44.8788     9.7278    17.8345 C.3     
 128 C128         -46.0514     9.4821    16.8828 C.3     
 129 C129         -45.5243     9.3184    15.4558 C.3     
 130 N130         -46.6501     9.0826    14.5421 N.3     
 131 C131         -47.3784    12.5178    23.0480 C.2     
 132 O132         -47.8273    12.8077    21.9592 O.2     
 133 N133         -45.5747    11.4733    21.8051 N.am    
 134 C134         -46.0866    11.7484    23.1499 C.3     
 135 C135         -45.0604    12.5755    23.9269 C.3     
 136 C136         -43.7920    11.7464    24.1384 C.3     
 137 C137         -42.7658    12.5734    24.9155 C.3     
 138 N138         -41.5513    11.7796    25.1180 N.pl3   
 139 C139         -40.4834    12.3178    25.7962 C.2     
 140 N140         -40.5515    13.5344    26.2590 N.2     
 141 N141         -39.3436    11.5728    25.9862 N.pl3   
 142 C142         -49.5018    14.4282    25.3293 C.2     
 143 O143         -48.6838    14.3764    26.2232 O.2     
 144 N144         -48.0349    12.8836    24.1667 N.am    
 145 C145         -49.2907    13.6315    24.0677 C.3     
 146 C146         -50.4531    12.6542    23.8812 C.3     
 147 C147         -50.3038    11.9342    22.5394 C.3     
 148 C148         -51.4661    10.9569    22.3530 C.3     
 149 N149         -51.3232    10.2676    21.0682 N.pl3   
 150 C150         -52.2565     9.3355    20.6806 C.2     
 151 N151         -53.2686     9.0652    21.4562 N.2     
 152 N152         -52.1224     8.6886    19.4749 N.pl3   
 153 C153         -52.2771    16.2318    26.8809 C.2     
 154 O154         -53.0764    15.8110    26.0716 O.2     
 155 N155         -50.5996    15.1983    25.4643 N.am    
 156 C156         -50.8048    15.9728    26.6908 C.3     
 157 C157         -50.0622    17.3061    26.5823 C.3     
 158 C158         -48.5559    17.0469    26.5145 C.3     
 159 C159         -47.8133    18.3802    26.4060 C.3     
 160 N160         -46.3709    18.1319    26.3411 N.pl3   
 161 C161         -45.4956    19.1873    26.2397 C.2     
 162 N162         -45.9491    20.4087    26.2013 N.2     
 163 N163         -44.1421    18.9543    26.1788 N.pl3   
 164 C164         -54.3251    18.4229    28.9709 C.2     
 165 O165         -53.3587    19.0358    29.3726 O.2     
 166 N166         -52.7057    16.9312    27.9503 N.am    
 167 C167         -54.1370    17.1831    28.1352 C.3     
 168 C168         -54.7777    15.9881    28.8440 C.3     
 169 C169         -54.6969    14.7559    27.9407 C.3     
 170 C170         -55.2238    13.5342    28.6962 C.3     
 171 C171         -55.5446    14.9855    26.6879 C.3     
 172 C172         -57.0293    20.0546    30.7892 C.2     
 173 O173         -57.9050    19.2759    30.4763 O.2     
 174 N174         -55.5673    18.8506    29.2720 N.am    
 175 C175         -55.7530    20.1139    29.9902 C.3     
 176 C176         -55.8334    21.2648    28.9853 C.3     
 177 C177         -55.8950    22.5955    29.7377 C.3     
 178 C178         -54.5772    22.8224    30.4814 C.3     
 179 C179         -56.1211    23.7347    28.7417 C.3     
 180 C180         -58.6494    22.2124    33.2554 C.2     
 181 O181         -57.7913    23.0578    33.1615 O.2     
 182 N182         -57.1977    20.8667    31.8515 N.am    
 183 C183         -58.4773    20.8841    32.5647 C.3     
 184 C184         -58.4966    19.7622    33.6048 C.3     
 185 O185         -59.7560    22.4563    33.9749 O.3     
 186 C186           5.1248   -10.4608     4.8975 C.2     
 187 O187           5.3850    -9.2765     4.8718 O.2     
 188 C188          23.1883   -13.4724     8.8761 C.3     
 189 C189          22.0869   -12.4534     8.5770 C.3     
 190 C190          20.7627   -13.1856     8.3498 C.3     
 191 C191          19.6613   -12.1666     8.0507 C.3     
 192 C192          18.3372   -12.8987     7.8235 C.3     
 193 C193          17.2358   -11.8797     7.5244 C.3     
 194 C194          15.9117   -12.6119     7.2972 C.3     
 195 C195          14.8103   -11.5929     6.9981 C.3     
 196 C196          13.4862   -12.3250     6.7709 C.3     
 197 C197          12.3848   -11.3060     6.4719 C.3     
 198 C198          11.0607   -12.0382     6.2447 C.3     
 199 C199           9.9593   -11.0192     5.9456 C.3     
 200 C200           8.6352   -11.7513     5.7184 C.3     
 201 C201           7.5337   -10.7323     5.4193 C.3     
 202 C202           6.2096   -11.4644     5.1921 C.3     
 203 H203           3.6572   -11.8264     4.6831 H       
 204 H204           2.9873    -8.9971     4.9553 H       
 205 H205           2.0962    -8.7750     2.6860 H       
 206 H206           3.8153    -9.2274     2.5945 H       
 207 H207           2.4603   -10.5875     1.1733 H       
 208 H208           0.4017    -8.8689     4.1999 H       
 209 H209          -0.9643   -10.5739     5.9899 H       
 210 H210          -1.1255   -11.2401     4.3472 H       
 211 H211          -3.5552   -10.5041     5.2515 H       
 212 H212          -4.0111    -7.6584     4.7809 H       
 213 H213          -5.5132    -8.0002     2.8782 H       
 214 H214          -3.9127    -8.6721     2.4842 H       
 215 H215          -5.6716   -10.2069     1.9775 H       
 216 H216          -6.6959    -7.4292     4.7386 H       
 217 H217          -7.5403    -8.3463     7.2729 H       
 218 H218          -8.2039    -9.4365     6.0322 H       
 219 H219         -10.2289    -8.1618     7.2719 H       
 220 H220         -10.6913    -5.5436     6.0641 H       
 221 H221         -12.3490    -7.9952     5.3221 H       
 222 H222         -12.8092    -6.3154     4.9548 H       
 223 H223         -11.3353    -9.0779     3.2059 H       
 224 H224          -9.7339    -8.2343     1.3539 H       
 225 H225          -9.1305    -5.7733     1.6986 H       
 226 H226         -13.2585    -4.9927     6.6711 H       
 227 H227         -14.0386    -6.3214     9.1518 H       
 228 H228         -13.1619    -3.4000     9.0749 H       
 229 H229         -14.0235    -4.1609    10.4340 H       
 230 H230         -10.8664    -4.0042     8.5647 H       
 231 H231          -8.7307    -4.8653     9.4367 H       
 232 H232          -8.6950    -6.2069    11.5012 H       
 233 H233         -10.7950    -6.6866    12.6942 H       
 234 H234         -12.9297    -5.8185    11.8267 H       
 235 H235         -16.0970    -4.8394    10.0627 H       
 236 H236         -17.4973    -3.5498     7.8483 H       
 237 H237         -18.4807    -6.1512     9.1030 H       
 238 H238         -19.4622    -5.1021     8.0522 H       
 239 H239         -17.8016    -5.3728     6.2308 H       
 240 H240         -16.8201    -6.4220     7.2816 H       
 241 H241         -18.7113    -8.0162     7.4564 H       
 242 H242         -19.6928    -6.9670     6.4056 H       
 243 H243         -17.2803    -7.5639     5.0639 H       
 244 H244         -20.1865   -10.3117     5.0349 H       
 245 H245         -17.3180    -9.2663     3.3993 H       
 246 H246         -18.5448   -10.4141     3.3993 H       
 247 H247         -19.9677    -3.0898     8.8221 H       
 248 H248         -19.8873    -2.7629    11.7228 H       
 249 H249         -19.9172    -0.3816     9.8156 H       
 250 H250         -20.2726    -0.2857    11.5571 H       
 251 H251         -18.0243    -1.1995    12.0662 H       
 252 H252         -17.6690    -1.2954    10.3247 H       
 253 H253         -17.9739     1.1575    10.1274 H       
 254 H254         -18.3293     1.2534    11.8689 H       
 255 H255         -16.0811     0.3396    12.3780 H       
 256 H256         -15.7257     0.2437    10.6365 H       
 257 H257         -16.3941     2.7301    12.0715 H       
 258 H258         -14.8644     2.2681    11.6104 H       
 259 H259         -22.0939    -1.3177    12.2748 H       
 260 H260         -24.1698    -1.8040    10.2793 H       
 261 H261         -24.1275    -3.2429    12.9695 H       
 262 H262         -25.5370    -3.1695    11.8850 H       
 263 H263         -24.2125    -4.2524    10.0901 H       
 264 H264         -22.8029    -4.3257    11.1746 H       
 265 H265         -24.4024    -7.6020    11.5712 H       
 266 H266         -26.4589    -1.1842    11.5594 H       
 267 H267         -25.9723     0.8172    13.6295 H       
 268 H268         -27.0190     1.5586    10.8612 H       
 269 H269         -27.0780     2.6275    12.2833 H       
 270 H270         -24.6091     2.5047    12.4780 H       
 271 H271         -24.5501     1.4359    11.0559 H       
 272 H272         -25.5786     3.2188     9.6732 H       
 273 H273         -25.6376     4.2877    11.0953 H       
 274 H274         -22.9769     3.4030    10.7567 H       
 275 H275         -22.0594     6.1158     8.7558 H       
 276 H276         -25.4227     5.3932     9.1594 H       
 277 H277         -24.3323     6.4363     8.4207 H       
 278 H278         -28.3500     1.9710    14.0301 H       
 279 H279         -30.4948     0.1080    13.2522 H       
 280 H280         -31.3397     0.1162    15.6324 H       
 281 H281         -29.6042     0.6676    17.3893 H       
 282 H282         -28.6015     1.3740    16.0993 H       
 283 H283         -30.2761     3.0371    15.5967 H       
 284 H284         -31.4762     2.2285    16.6332 H       
 285 H285         -30.0683     3.0355    17.3645 H       
 286 H286         -28.5296    -1.0226    15.2971 H       
 287 H287         -29.7950    -1.6142    16.4003 H       
 288 H288         -30.0039    -1.7726    14.6397 H       
 289 H289         -32.7291     1.1999    14.2115 H       
 290 H290         -32.4646     4.0886    14.5482 H       
 291 H291         -33.9314     2.8530    12.1753 H       
 292 H292         -34.0664     4.5574    12.6703 H       
 293 H293         -31.6216     4.8392    12.3668 H       
 294 H294         -31.4866     3.1348    11.8718 H       
 295 H295         -31.7966     4.9592     8.7056 H       
 296 H296         -35.0104     4.9688    14.6292 H       
 297 H297         -36.1673     3.6347    16.8334 H       
 298 H298         -37.0154     3.1174    15.3564 H       
 299 H299         -38.7648     4.4448    16.8802 H       
 300 H300         -38.4048     7.3300    16.7125 H       
 301 H301         -39.2488     6.7826    14.4454 H       
 302 H302         -40.6391     5.9377    15.1677 H       
 303 H303         -41.2521     8.0969    16.3319 H       
 304 H304         -39.1453     9.2566    14.4534 H       
 305 H305         -40.2033    10.1751    15.5513 H       
 306 H306         -38.9565     9.0923    16.2157 H       
 307 H307         -42.3379     7.4024    14.2136 H       
 308 H308         -42.1589     9.1717    14.2896 H       
 309 H309         -41.0476     8.2069    13.2884 H       
 310 H310         -40.3320     8.4634    17.8615 H       
 311 H311         -42.1532     6.6634    19.2653 H       
 312 H312         -40.0933     8.3680    20.7351 H       
 313 H313         -41.4834     7.5709    21.5103 H       
 314 H314         -40.6595     5.3686    20.7230 H       
 315 H315         -39.2695     6.1657    19.9479 H       
 316 H316         -38.5336     7.0272    22.1535 H       
 317 H317         -39.9236     6.2301    22.9286 H       
 318 H318         -38.4873     4.2887    21.4642 H       
 319 H319         -37.0941     5.3546    25.0587 H       
 320 H320         -37.0025     2.8599    22.6577 H       
 321 H321         -36.4251     3.3204    24.1667 H       
 322 H322         -43.5008     8.2836    20.9451 H       
 323 H323         -43.6541    10.9916    19.8631 H       
 324 H324         -45.9328     8.9854    19.5604 H       
 325 H325         -46.0898    10.7393    19.3012 H       
 326 H326         -44.3519    10.6340    17.5356 H       
 327 H327         -44.1949     8.8800    17.7948 H       
 328 H328         -46.5782     8.5760    17.1817 H       
 329 H329         -46.7353    10.3299    16.9225 H       
 330 H330         -44.9974    10.2246    15.1569 H       
 331 H331         -44.8404     8.4706    15.4161 H       
 332 H332         -46.3278     8.9711    13.5925 H       
 333 H333         -47.1931     8.2844    14.8357 H       
 334 H334         -45.8221    12.0492    21.0647 H       
 335 H335         -46.2642    10.8074    23.6705 H       
 336 H336         -44.8164    13.4753    23.3623 H       
 337 H337         -45.4770    12.8554    24.8945 H       
 338 H338         -44.0361    10.8465    24.7031 H       
 339 H339         -43.3754    11.4664    23.1709 H       
 340 H340         -42.5218    13.4733    24.3508 H       
 341 H341         -43.1824    12.8534    25.8830 H       
 342 H342         -41.5006    10.8742    24.7736 H       
 343 H343         -39.7980    13.9141    26.7375 H       
 344 H344         -39.2930    10.6674    25.6418 H       
 345 H345         -38.5902    11.9526    26.4648 H       
 346 H346         -47.6760    12.6517    25.0375 H       
 347 H347         -49.2444    14.3080    23.2142 H       
 348 H348         -50.4456    11.9224    24.6890 H       
 349 H349         -51.3949    13.2026    23.8965 H       
 350 H350         -50.3113    12.6660    21.7316 H       
 351 H351         -49.3619    11.3858    22.5242 H       
 352 H352         -51.4586    10.2251    23.1607 H       
 353 H353         -52.4080    11.5053    22.3682 H       
 354 H354         -50.5700    10.4688    20.4910 H       
 355 H355         -53.9271     8.4076    21.1828 H       
 356 H356         -51.3692     8.8898    18.8977 H       
 357 H357         -52.7809     8.0310    19.2015 H       
 358 H358         -51.2539    15.2398    24.7494 H       
 359 H359         -50.4215    15.4118    27.5431 H       
 360 H360         -50.3821    17.8277    25.6802 H       
 361 H361         -50.2865    17.9190    27.4553 H       
 362 H362         -48.2360    16.5252    27.4165 H       
 363 H363         -48.3316    16.4339    25.6415 H       
 364 H364         -48.1331    18.9018    25.5039 H       
 365 H365         -48.0376    18.9931    27.2790 H       
 366 H366         -46.0334    17.2230    26.3696 H       
 367 H367         -45.3316    21.1533    26.1298 H       
 368 H368         -43.8046    18.0454    26.2073 H       
 369 H369         -43.5245    19.6989    26.1072 H       
 370 H370         -52.0665    17.2678    28.5976 H       
 371 H371         -54.6095    17.3250    27.1632 H       
 372 H372         -54.2473    15.7911    29.7756 H       
 373 H373         -55.8223    16.2117    29.0610 H       
 374 H374         -53.6600    14.5848    27.6514 H       
 375 H375         -56.2608    13.7053    28.9854 H       
 376 H376         -55.1663    12.6564    28.0526 H       
 377 H377         -54.6199    13.3707    29.5887 H       
 378 H378         -55.1692    15.8558    26.1496 H       
 379 H379         -55.4870    14.1076    26.0443 H       
 380 H380         -56.5815    15.1566    26.9771 H       
 381 H381         -56.3383    18.3220    29.0131 H       
 382 H382         -54.9106    20.2769    30.6625 H       
 383 H383         -54.9517    21.2501    28.3446 H       
 384 H384         -56.7287    21.1514    28.3739 H       
 385 H385         -56.7165    22.5705    30.4537 H       
 386 H386         -54.6458    23.7360    31.0718 H       
 387 H387         -54.3823    21.9770    31.1413 H       
 388 H388         -53.7648    22.9156    29.7607 H       
 389 H389         -57.0599    23.5731    28.2119 H       
 390 H390         -56.1650    24.6827    29.2778 H       
 391 H391         -55.2996    23.7598    28.0258 H       
 392 H392         -56.4717    21.4398    32.1438 H       
 393 H393         -59.2910    20.7355    31.8549 H       
 394 H394         -59.4486    19.7751    34.1355 H       
 395 H395         -58.3721    18.8014    33.1053 H       
 396 H396         -57.6829    19.9107    34.3147 H       
 397 H397         -59.8215    23.3226    34.3996 H       
 398 H398          24.1316   -12.9508     9.0379 H       
 399 H399          22.9273   -14.0374     9.7709 H       
 400 H400          23.2906   -14.1550     8.0324 H       
 401 H401          21.9845   -11.7709     9.4206 H       
 402 H402          22.3478   -11.8885     7.6821 H       
 403 H403          20.8651   -13.8681     7.5061 H       
 404 H404          20.5018   -13.7506     9.2447 H       
 405 H405          19.5590   -11.4840     8.8944 H       
 406 H406          19.9223   -11.6016     7.1558 H       
 407 H407          18.4396   -13.5813     6.9799 H       
 408 H408          18.0762   -13.4637     8.7184 H       
 409 H409          17.1335   -11.1972     8.3681 H       
 410 H410          17.4968   -11.3147     6.6296 H       
 411 H411          16.0140   -13.2944     6.4536 H       
 412 H412          15.6507   -13.1768     8.1921 H       
 413 H413          14.7080   -10.9103     7.8418 H       
 414 H414          15.0713   -11.0279     6.1033 H       
 415 H415          13.5885   -13.0076     5.9273 H       
 416 H416          13.2252   -12.8900     7.6658 H       
 417 H417          12.2824   -10.6235     7.3155 H       
 418 H418          12.6458   -10.7410     5.5770 H       
 419 H419          11.1630   -12.7207     5.4010 H       
 420 H420          10.7997   -12.6031     7.1395 H       
 421 H421           9.8569   -10.3366     6.7892 H       
 422 H422          10.2202   -10.4542     5.0507 H       
 423 H423           8.7375   -12.4338     4.8747 H       
 424 H424           8.3742   -12.3163     6.6132 H       
 425 H425           7.4314   -10.0498     6.2629 H       
 426 H426           7.7947   -10.1673     4.5244 H       
 427 H427           5.9487   -12.0294     6.0869 H       
 428 H428           6.3120   -12.1470     4.3484 H       
@<TRIPOS>BOND
   1    1    2 2
   2    1    4 1
   3    1    9 am
   4    3  186 am
   5    3    4 1
   6    3  203 1
   7    4    5 1
   8    4  204 1
   9    5    6 1
  10    5  205 1
  11    5  206 1
  12    6  207 1
  13    7    8 2
  14    7   10 1
  15    7   13 am
  16    9   10 1
  17    9  208 1
  18   10  209 1
  19   10  210 1
  20   11   12 2
  21   11   14 1
  22   11   19 am
  23   13   14 1
  24   13  211 1
  25   14   15 1
  26   14  212 1
  27   15   16 1
  28   15  213 1
  29   15  214 1
  30   16  215 1
  31   17   18 2
  32   17   20 1
  33   17   23 am
  34   19   20 1
  35   19  216 1
  36   20  217 1
  37   20  218 1
  38   21   22 2
  39   21   24 1
  40   21   33 am
  41   23   24 1
  42   23  219 1
  43   24   25 1
  44   24  220 1
  45   25   26 1
  46   25  221 1
  47   25  222 1
  48   26   27 2
  49   26   30 1
  50   27   28 1
  51   27  223 1
  52   28   29 1
  53   28  224 1
  54   29   30 2
  55   29  225 1
  56   31   32 2
  57   31   34 1
  58   31   44 am
  59   33   34 1
  60   33  226 1
  61   34   35 1
  62   34  227 1
  63   35   36 1
  64   35  228 1
  65   35  229 1
  66   36   37 ar
  67   36   41 ar
  68   37   38 ar
  69   37  230 1
  70   38   39 ar
  71   38  231 1
  72   39   40 ar
  73   39  232 1
  74   40   41 ar
  75   40  233 1
  76   41  234 1
  77   42   43 2
  78   42   45 1
  79   42   55 am
  80   44   45 1
  81   44  235 1
  82   45   46 1
  83   45  236 1
  84   46   47 1
  85   46  237 1
  86   46  238 1
  87   47   48 1
  88   47  239 1
  89   47  240 1
  90   48   49 1
  91   48  241 1
  92   48  242 1
  93   49   50 1
  94   49  243 1
  95   50   51 2
  96   50   52 1
  97   51  244 1
  98   52  245 1
  99   52  246 1
 100   53   54 2
 101   53   56 1
 102   53   64 am
 103   55   56 1
 104   55  247 1
 105   56   57 1
 106   56  248 1
 107   57   58 1
 108   57  249 1
 109   57  250 1
 110   58   59 1
 111   58  251 1
 112   58  252 1
 113   59   60 1
 114   59  253 1
 115   59  254 1
 116   60   61 1
 117   60  255 1
 118   60  256 1
 119   61  257 1
 120   61  258 1
 121   62   63 2
 122   62   65 1
 123   62   73 am
 124   64   65 1
 125   64  259 1
 126   65   66 1
 127   65  260 1
 128   66   67 1
 129   66  261 1
 130   66  262 1
 131   67   68 1
 132   67  263 1
 133   67  264 1
 134   68   69 2
 135   68   70 1
 136   70  265 1
 137   71   72 2
 138   71   74 1
 139   71   84 am
 140   73   74 1
 141   73  266 1
 142   74   75 1
 143   74  267 1
 144   75   76 1
 145   75  268 1
 146   75  269 1
 147   76   77 1
 148   76  270 1
 149   76  271 1
 150   77   78 1
 151   77  272 1
 152   77  273 1
 153   78   79 1
 154   78  274 1
 155   79   80 2
 156   79   81 1
 157   80  275 1
 158   81  276 1
 159   81  277 1
 160   82   83 2
 161   82   85 1
 162   82   92 am
 163   84   85 1
 164   84  278 1
 165   85   86 1
 166   85  279 1
 167   86   87 1
 168   86   89 1
 169   86  280 1
 170   87   88 1
 171   87  281 1
 172   87  282 1
 173   88  283 1
 174   88  284 1
 175   88  285 1
 176   89  286 1
 177   89  287 1
 178   89  288 1
 179   90   91 2
 180   90   93 1
 181   90  101 am
 182   92   93 1
 183   92  289 1
 184   93   94 1
 185   93  290 1
 186   94   95 1
 187   94  291 1
 188   94  292 1
 189   95   96 1
 190   95  293 1
 191   95  294 1
 192   96   97 2
 193   96   98 1
 194   98  295 1
 195   99  100 2
 196   99  102 1
 197   99  105 am
 198  101  102 1
 199  101  296 1
 200  102  297 1
 201  102  298 1
 202  103  104 2
 203  103  106 1
 204  103  113 am
 205  105  106 1
 206  105  299 1
 207  106  107 1
 208  106  300 1
 209  107  108 1
 210  107  301 1
 211  107  302 1
 212  108  109 1
 213  108  110 1
 214  108  303 1
 215  109  304 1
 216  109  305 1
 217  109  306 1
 218  110  307 1
 219  110  308 1
 220  110  309 1
 221  111  112 2
 222  111  114 1
 223  111  124 am
 224  113  114 1
 225  113  310 1
 226  114  115 1
 227  114  311 1
 228  115  116 1
 229  115  312 1
 230  115  313 1
 231  116  117 1
 232  116  314 1
 233  116  315 1
 234  117  118 1
 235  117  316 1
 236  117  317 1
 237  118  119 1
 238  118  318 1
 239  119  120 2
 240  119  121 1
 241  120  319 1
 242  121  320 1
 243  121  321 1
 244  122  123 2
 245  122  125 1
 246  122  133 am
 247  124  125 1
 248  124  322 1
 249  125  126 1
 250  125  323 1
 251  126  127 1
 252  126  324 1
 253  126  325 1
 254  127  128 1
 255  127  326 1
 256  127  327 1
 257  128  129 1
 258  128  328 1
 259  128  329 1
 260  129  130 1
 261  129  330 1
 262  129  331 1
 263  130  332 1
 264  130  333 1
 265  131  132 2
 266  131  134 1
 267  131  144 am
 268  133  134 1
 269  133  334 1
 270  134  135 1
 271  134  335 1
 272  135  136 1
 273  135  336 1
 274  135  337 1
 275  136  137 1
 276  136  338 1
 277  136  339 1
 278  137  138 1
 279  137  340 1
 280  137  341 1
 281  138  139 1
 282  138  342 1
 283  139  140 2
 284  139  141 1
 285  140  343 1
 286  141  344 1
 287  141  345 1
 288  142  143 2
 289  142  145 1
 290  142  155 am
 291  144  145 1
 292  144  346 1
 293  145  146 1
 294  145  347 1
 295  146  147 1
 296  146  348 1
 297  146  349 1
 298  147  148 1
 299  147  350 1
 300  147  351 1
 301  148  149 1
 302  148  352 1
 303  148  353 1
 304  149  150 1
 305  149  354 1
 306  150  151 2
 307  150  152 1
 308  151  355 1
 309  152  356 1
 310  152  357 1
 311  153  154 2
 312  153  156 1
 313  153  166 am
 314  155  156 1
 315  155  358 1
 316  156  157 1
 317  156  359 1
 318  157  158 1
 319  157  360 1
 320  157  361 1
 321  158  159 1
 322  158  362 1
 323  158  363 1
 324  159  160 1
 325  159  364 1
 326  159  365 1
 327  160  161 1
 328  160  366 1
 329  161  162 2
 330  161  163 1
 331  162  367 1
 332  163  368 1
 333  163  369 1
 334  164  165 2
 335  164  167 1
 336  164  174 am
 337  166  167 1
 338  166  370 1
 339  167  168 1
 340  167  371 1
 341  168  169 1
 342  168  372 1
 343  168  373 1
 344  169  170 1
 345  169  171 1
 346  169  374 1
 347  170  375 1
 348  170  376 1
 349  170  377 1
 350  171  378 1
 351  171  379 1
 352  171  380 1
 353  172  173 2
 354  172  175 1
 355  172  182 am
 356  174  175 1
 357  174  381 1
 358  175  176 1
 359  175  382 1
 360  176  177 1
 361  176  383 1
 362  176  384 1
 363  177  178 1
 364  177  179 1
 365  177  385 1
 366  178  386 1
 367  178  387 1
 368  178  388 1
 369  179  389 1
 370  179  390 1
 371  179  391 1
 372  180  181 2
 373  180  183 1
 374  180  185 1
 375  182  183 1
 376  182  392 1
 377  183  184 1
 378  183  393 1
 379  184  394 1
 380  184  395 1
 381  184  396 1
 382  185  397 1
 383  186  187 2
 384  186  202 1
 385  188  189 1
 386  188  398 1
 387  188  399 1
 388  188  400 1
 389  189  190 1
 390  189  401 1
 391  189  402 1
 392  190  191 1
 393  190  403 1
 394  190  404 1
 395  191  192 1
 396  191  405 1
 397  191  406 1
 398  192  193 1
 399  192  407 1
 400  192  408 1
 401  193  194 1
 402  193  409 1
 403  193  410 1
 404  194  195 1
 405  194  411 1
 406  194  412 1
 407  195  196 1
 408  195  413 1
 409  195  414 1
 410  196  197 1
 411  196  415 1
 412  196  416 1
 413  197  198 1
 414  197  417 1
 415  197  418 1
 416  198  199 1
 417  198  419 1
 418  198  420 1
 419  199  200 1
 420  199  421 1
 421  199  422 1
 422  200  201 1
 423  200  423 1
 424  200  424 1
 425  201  202 1
 426  201  425 1
 427  201  426 1
 428  202  427 1
 429  202  428 1

#	End of record

