#	Name: ASD01320155
#	Creating user name:	WinNT
#	Creation time:	15. 06. 2019 19:16

#	Modifying user name:	WinNT
#	Modification time:	15. 06. 2019 19:16

#	Program:	/corina/corina34_cracker 3.40 0067  02.08.2006

@<TRIPOS>MOLECULE
ASD01320155
  25   25    0    0    0
SMALL
NO_CHARGES


@<TRIPOS>ATOM
   1 O1            -0.0173     1.4259     0.0099 O.3     
   2 O2             4.4634     0.1118    -5.1612 O.2     
   3 C3             0.0021    -0.0041     0.0020 C.3     
   4 O4             5.6061    -1.5249    -3.6998 O.2     
   5 C5             0.7485    -0.4921    -1.2424 C.3     
   6 O6             6.3767     0.6528    -3.9575 O.3     
   7 N7             2.1015     0.0829    -1.2528 N.3     
   8 C8             2.0433     1.5519    -1.2438 C.3     
   9 C9             1.2838     2.0194     0.0006 C.3     
  10 C10            2.8725    -0.4063    -2.4036 C.3     
  11 C11            4.1715     0.3931    -2.5241 C.3     
  12 S12            5.1236    -0.2110    -3.9451 S.o2    
  13 H13            0.5095    -0.3661     0.8962 H       
  14 H14           -1.0202    -0.3818    -0.0153 H       
  15 H15            0.8155    -1.5799    -1.2234 H       
  16 H16            0.2115    -0.1755    -2.1365 H       
  17 H17            6.9919     0.4430    -4.6734 H       
  18 H18            3.0554     1.9561    -1.2258 H       
  19 H19            1.5270     1.9012    -2.1379 H       
  20 H20            1.1886     3.1051    -0.0176 H       
  21 H21            1.8285     1.7162     0.8948 H       
  22 H22            3.1070    -1.4613    -2.2618 H       
  23 H23            2.2848    -0.2837    -3.3133 H       
  24 H24            3.9371     1.4481    -2.6658 H       
  25 H25            4.7593     0.2705    -1.6143 H       
@<TRIPOS>BOND
   1    1    3 1
   2    1    9 1
   3    2   12 2
   4    3    5 1
   5    3   13 1
   6    3   14 1
   7    4   12 2
   8    5    7 1
   9    5   15 1
  10    5   16 1
  11    6   12 1
  12    6   17 1
  13    7    8 1
  14    7   10 1
  15    8    9 1
  16    8   18 1
  17    8   19 1
  18    9   20 1
  19    9   21 1
  20   10   11 1
  21   10   22 1
  22   10   23 1
  23   11   12 1
  24   11   24 1
  25   11   25 1

#	End of record

