#	Name: ASD02038685
#	Creating user name:	WinNT
#	Creation time:	15. 06. 2019 20:17

#	Modifying user name:	WinNT
#	Modification time:	15. 06. 2019 20:17

#	Program:	/corina/corina34_cracker 3.40 0067  02.08.2006

@<TRIPOS>MOLECULE
ASD02038685
  48   48    0    0    0
SMALL
NO_CHARGES


@<TRIPOS>ATOM
   1 C1            -0.0167     1.3781     0.0096 C.ar    
   2 C2             0.0021    -0.0041     0.0020 C.ar    
   3 C3             1.2084    -0.6789    -0.0132 C.ar    
   4 C4             1.2289    -2.1857    -0.0210 C.3     
   5 C5             1.2217    -2.6884    -1.4660 C.3     
   6 C6             1.2421    -4.1952    -1.4738 C.2     
   7 N7             1.2399    -4.8632    -2.6444 N.am    
   8 N8             1.2584    -6.2290    -2.6515 N.3     
   9 C9             1.2521    -6.7485    -4.0255 C.3     
  10 C10            1.2669    -8.8109    -5.4022 C.ar    
  11 C11            1.1709     2.0855     0.0021 C.ar    
  12 C12            2.3773     1.4107    -0.0131 C.ar    
  13 C13            2.3960     0.0285    -0.0217 C.ar    
  14 C14            1.2733    -8.2780    -3.9926 C.3     
  15 O15            1.2606    -4.8069    -0.4267 O.2     
  16 C16            2.4614    -9.0390    -6.0601 C.ar    
  17 C17            2.4569    -9.5277    -7.3529 C.ar    
  18 C18            1.2567    -9.7890    -7.9894 C.ar    
  19 C19            0.0606    -9.5607    -7.3307 C.ar    
  20 C20            0.0671    -9.0768    -6.0346 C.ar    
  21 Cl21          -1.4463    -9.8881    -8.1280 Cl      
  22 Cl22           1.2504   -10.4024    -9.6134 Cl      
  23 C23            1.1505     3.5924     0.0099 C.3     
  24 H24           -0.9592     1.9054     0.0170 H       
  25 H25           -0.9258    -0.5567     0.0083 H       
  26 H26            2.1287    -2.5395     0.4823 H       
  27 H27            0.3490    -2.5637     0.4996 H       
  28 H28            0.3219    -2.3346    -1.9693 H       
  29 H29            2.1016    -2.3104    -1.9866 H       
  30 H30            1.2251    -4.3740    -3.4819 H       
  31 H31            2.0497    -6.5826    -2.1348 H       
  32 H32            0.3524    -6.4085    -4.5384 H       
  33 H33            2.1321    -6.3843    -4.5557 H       
  34 H34            3.3051     1.9634    -0.0197 H       
  35 H35            3.3385    -0.4987    -0.0332 H       
  36 H36            2.1730    -8.6180    -3.4797 H       
  37 H37            0.3933    -8.6422    -3.4625 H       
  38 H38            3.3985    -8.8347    -5.5636 H       
  39 H39            3.3903    -9.7052    -7.8663 H       
  40 H40           -0.8656    -8.8988    -5.5200 H       
  41 H41            1.1552     3.9505     1.0394 H       
  42 H42            2.0306     3.9704    -0.5103 H       
  43 H43            0.2509     3.9462    -0.4937 H       
  44 S44           10.7059    10.6302     6.0485 S.3     
  45 O45           10.7284     8.9704     6.0394 O.2     
  46 O46           12.1320    11.4797     6.0395 O.2     
  47 N47            9.2319    11.4547     6.0600 N.2     
  48 H48            8.3985    10.9584     6.0613 H       
@<TRIPOS>BOND
   1    1    2 ar
   2    1   11 ar
   3    1   24 1
   4    2    3 ar
   5    2   25 1
   6    3    4 1
   7    3   13 ar
   8    4    5 1
   9    4   26 1
  10    4   27 1
  11    5    6 1
  12    5   28 1
  13    5   29 1
  14    6    7 am
  15    6   15 2
  16    7    8 1
  17    7   30 1
  18    8    9 1
  19    8   31 1
  20    9   14 1
  21    9   32 1
  22    9   33 1
  23   10   16 ar
  24   10   14 1
  25   10   20 ar
  26   11   12 ar
  27   11   23 1
  28   12   13 ar
  29   12   34 1
  30   13   35 1
  31   14   36 1
  32   14   37 1
  33   16   17 ar
  34   16   38 1
  35   17   18 ar
  36   17   39 1
  37   18   19 ar
  38   18   22 1
  39   19   20 ar
  40   19   21 1
  41   20   40 1
  42   23   41 1
  43   23   42 1
  44   23   43 1
  45   44   45 2
  46   44   46 2
  47   44   47 2
  48   47   48 1

#	End of record

