#	Name: ASD03330883
#	Creating user name:	WinNT
#	Creation time:	15. 06. 2019 20:38

#	Modifying user name:	WinNT
#	Modification time:	15. 06. 2019 20:38

#	Program:	/corina/corina34_cracker 3.40 0067  02.08.2006

@<TRIPOS>MOLECULE
ASD03330883
  63   65    0    0    0
SMALL
NO_CHARGES


@<TRIPOS>ATOM
   1 N1             0.1553     0.9733    -0.0293 N.pl3   
   2 C2             0.0397    -0.3636     0.1897 C.2     
   3 C3             1.1630    -1.2901     0.5756 C.3     
   4 N4             1.9335    -0.6832     1.6722 N.3     
   5 C5             3.0083     0.1675     1.1577 C.3     
   6 C6             2.5910     0.8475    -0.1431 C.3     
   7 C7             1.3858     1.7571     0.1109 C.3     
   8 C8            -1.0773     1.4369    -0.3866 C.2     
   9 N9            -1.9229     0.4333    -0.3715 N.2     
  10 C10           -1.2654    -0.6924    -0.0168 C.2     
  11 C11           -1.8552    -2.0357     0.1216 C.2     
  12 O12           -1.1564    -2.9759     0.4489 O.2     
  13 N13           -3.1689    -2.2225    -0.1143 N.am    
  14 C14            2.4639    -1.7129     2.5757 C.3     
  15 C15           -4.9884    -3.6564    -0.8372 C.2     
  16 C16           -3.7552    -3.5580     0.0234 C.3     
  17 C17           -4.1333    -3.8007     1.4859 C.3     
  18 C18           -5.2016    -2.7912     1.9108 C.3     
  19 O19           -5.6238    -2.6580    -1.1027 O.2     
  20 N20           -5.3852    -4.8538    -1.3118 N.am    
  21 C21           -6.6415    -4.9666    -2.0569 C.3     
  22 C22           -4.6823    -5.2203     1.6420 C.3     
  23 C23           -2.8941    -3.6333     2.3676 C.3     
  24 C24           -1.4057     2.8369    -0.7326 C.ar    
  25 C25           -2.1809     3.1175    -1.8609 C.ar    
  26 C26           -2.4842     4.4279    -2.1787 C.ar    
  27 C27           -2.0223     5.4602    -1.3828 C.ar    
  28 C28           -1.2533     5.1886    -0.2628 C.ar    
  29 C29           -0.9478     3.8824     0.0692 C.ar    
  30 C30           -2.3564     6.8867    -1.7356 C.3     
  31 F31           -0.8058     6.2027     0.5096 F       
  32 F32           -2.6325     2.1101    -2.6395 F       
  33 H33            0.7516    -2.2445     0.9040 H       
  34 H34            1.8151    -1.4495    -0.2832 H       
  35 H35            3.2480     0.9295     1.8993 H       
  36 H36            3.8922    -0.4436     0.9748 H       
  37 H37            3.4209     1.4433    -0.5230 H       
  38 H38            2.3239     0.0891    -0.8790 H       
  39 H39            1.3842     2.5708    -0.6143 H       
  40 H40            1.4443     2.1664     1.1194 H       
  41 H41           -3.7262    -1.4727    -0.3753 H       
  42 H42            3.0614    -2.4240     2.0053 H       
  43 H43            3.0870    -1.2428     3.3365 H       
  44 H44            1.6368    -2.2360     3.0558 H       
  45 H45           -3.0302    -4.3076    -0.2937 H       
  46 H46           -6.0844    -2.9104     1.2828 H       
  47 H47           -5.4709    -2.9641     2.9528 H       
  48 H48           -4.8105    -1.7799     1.7997 H       
  49 H49           -4.8390    -5.6409    -1.1600 H       
  50 H50           -6.7937    -6.0032    -2.3578 H       
  51 H51           -7.4693    -4.6468    -1.4240 H       
  52 H52           -6.5963    -4.3339    -2.9433 H       
  53 H53           -3.9002    -5.9407     1.4023 H       
  54 H54           -5.0127    -5.3711     2.6697 H       
  55 H55           -5.5251    -5.3603     0.9651 H       
  56 H56           -2.5030    -2.6220     2.2564 H       
  57 H57           -3.1634    -3.8062     3.4095 H       
  58 H58           -2.1330    -4.3525     2.0649 H       
  59 H59           -3.0830     4.6462    -3.0506 H       
  60 H60           -0.3520     3.6718     0.9450 H       
  61 H61           -3.2896     7.1721    -1.2498 H       
  62 H62           -1.5547     7.5424    -1.3958 H       
  63 H63           -2.4668     6.9775    -2.8162 H       
@<TRIPOS>BOND
   1    1    2 1
   2    1    7 1
   3    1    8 1
   4    2    3 1
   5    2   10 2
   6    3    4 1
   7    3   33 1
   8    3   34 1
   9    4    5 1
  10    4   14 1
  11    5    6 1
  12    5   35 1
  13    5   36 1
  14    6    7 1
  15    6   37 1
  16    6   38 1
  17    7   39 1
  18    7   40 1
  19    8    9 2
  20    8   24 1
  21    9   10 1
  22   10   11 1
  23   11   12 2
  24   11   13 am
  25   13   16 1
  26   13   41 1
  27   14   42 1
  28   14   43 1
  29   14   44 1
  30   15   19 2
  31   15   20 am
  32   15   16 1
  33   16   17 1
  34   16   45 1
  35   17   18 1
  36   17   22 1
  37   17   23 1
  38   18   46 1
  39   18   47 1
  40   18   48 1
  41   20   21 1
  42   20   49 1
  43   21   50 1
  44   21   51 1
  45   21   52 1
  46   22   53 1
  47   22   54 1
  48   22   55 1
  49   23   56 1
  50   23   57 1
  51   23   58 1
  52   24   25 ar
  53   24   29 ar
  54   25   26 ar
  55   25   32 1
  56   26   27 ar
  57   26   59 1
  58   27   28 ar
  59   27   30 1
  60   28   29 ar
  61   28   31 1
  62   29   60 1
  63   30   61 1
  64   30   62 1
  65   30   63 1

#	End of record

