#	Name: ASD01811837
#	Creating user name:	WinNT
#	Creation time:	15. 06. 2019 19:27

#	Modifying user name:	WinNT
#	Modification time:	15. 06. 2019 19:27

#	Program:	/corina/corina34_cracker 3.40 0067  02.08.2006

@<TRIPOS>MOLECULE
ASD01811837
  54   57    0    0    0
SMALL
NO_CHARGES


@<TRIPOS>ATOM
   1 C1            -0.0167     1.3786     0.0096 C.ar    
   2 C2             0.0021    -0.0041     0.0020 C.ar    
   3 C3             1.2072    -0.6814    -0.0127 C.ar    
   4 C4             2.4019     0.0174    -0.0203 C.ar    
   5 C5             2.3995     1.3964    -0.0129 C.ar    
   6 C6             1.1877     2.0897     0.0019 C.ar    
   7 C7             1.2201    -2.1883    -0.0199 C.3     
   8 C8             1.1776     3.5666     0.0095 C.2     
   9 N9             2.3401     4.2484     0.0020 N.am    
  10 O10            0.1207     4.1672     0.0224 O.2     
  11 C11            2.3301     5.7134     0.0095 C.3     
  12 C12            3.7097    -0.7312    -0.0363 C.3     
  13 C13            4.0709    -1.0811    -1.4570 C.ar    
  14 C14            3.6394    -2.2752    -2.0045 C.ar    
  15 C15            4.8284    -0.2047    -2.2122 C.ar    
  16 C16            5.1606    -0.5223    -3.5146 C.ar    
  17 C17            4.7333    -1.7230    -4.0654 C.ar    
  18 C18            3.9688    -2.5987    -3.3062 C.ar    
  19 C19            3.6486     7.7664    -0.5161 C.3     
  20 C20            3.6339     6.2378    -0.6000 C.3     
  21 C21            2.2143     6.2177     1.4513 C.3     
  22 C22            2.2839     7.7470     1.4559 C.3     
  23 O23            3.5063     8.1687     0.8477 O.3     
  24 O24            3.7179     5.8338    -1.9681 O.3     
  25 N25            5.0689    -2.0482    -5.3871 N.pl3   
  26 C26            4.7191    -3.1785    -6.0419 C.2     
  27 C27            5.2370    -3.1082    -7.2901 C.2     
  28 C28            5.9262    -1.8957    -7.4029 C.2     
  29 N29            5.8209    -1.2572    -6.2653 N.2     
  30 F30           -1.1945     2.0403     0.0188 F       
  31 H31           -0.9263    -0.5558     0.0079 H       
  32 H32            3.3332     1.9391    -0.0182 H       
  33 H33            1.2134    -2.5468    -1.0492 H       
  34 H34            2.1180    -2.5464     0.4837 H       
  35 H35            0.3382    -2.5617     0.5006 H       
  36 H36            3.1834     3.7692    -0.0083 H       
  37 H37            1.4825     6.0752    -0.5725 H       
  38 H38            4.4918    -0.1055     0.3938 H       
  39 H39            3.6124    -1.6452     0.5495 H       
  40 H40            3.0445    -2.9559    -1.4135 H       
  41 H41            5.1602     0.7293    -1.7833 H       
  42 H42            5.7519     0.1627    -4.1041 H       
  43 H43            3.6321    -3.5319    -3.7331 H       
  44 H44            4.5929     8.1429    -0.9096 H       
  45 H45            2.8234     8.1705    -1.1024 H       
  46 H46            4.4824     5.8345    -0.0473 H       
  47 H47            1.2631     5.8950     1.8747 H       
  48 H48            3.0341     5.8139     2.0454 H       
  49 H49            1.4407     8.1509     0.8954 H       
  50 H50            2.2449     8.1096     2.4831 H       
  51 H51            4.5181     6.1361    -2.4190 H       
  52 H52            4.1318    -3.9912    -5.6408 H       
  53 H53            5.1367    -3.8562    -8.0626 H       
  54 H54            6.4507    -1.5450    -8.2794 H       
@<TRIPOS>BOND
   1    1    2 ar
   2    1    6 ar
   3    1   30 1
   4    2    3 ar
   5    2   31 1
   6    3    4 ar
   7    3    7 1
   8    4    5 ar
   9    4   12 1
  10    5    6 ar
  11    5   32 1
  12    6    8 1
  13    7   33 1
  14    7   34 1
  15    7   35 1
  16    8    9 am
  17    8   10 2
  18    9   11 1
  19    9   36 1
  20   11   21 1
  21   11   20 1
  22   11   37 1
  23   12   13 1
  24   12   38 1
  25   12   39 1
  26   13   15 ar
  27   13   14 ar
  28   14   18 ar
  29   14   40 1
  30   15   16 ar
  31   15   41 1
  32   16   17 ar
  33   16   42 1
  34   17   18 ar
  35   17   25 1
  36   18   43 1
  37   19   20 1
  38   19   23 1
  39   19   44 1
  40   19   45 1
  41   20   24 1
  42   20   46 1
  43   21   22 1
  44   21   47 1
  45   21   48 1
  46   22   23 1
  47   22   49 1
  48   22   50 1
  49   24   51 1
  50   25   26 1
  51   25   29 1
  52   26   27 2
  53   26   52 1
  54   27   28 1
  55   27   53 1
  56   28   29 2
  57   28   54 1

#	End of record

