#	Name: ASD01418030
#	Creating user name:	WinNT
#	Creation time:	15. 06. 2019 19:20

#	Modifying user name:	WinNT
#	Modification time:	15. 06. 2019 19:20

#	Program:	/corina/corina34_cracker 3.40 0067  02.08.2006

@<TRIPOS>MOLECULE
ASD01418030
  47   49    0    0    0
SMALL
NO_CHARGES


@<TRIPOS>ATOM
   1 N1            -0.0164     1.3615     0.0095 N.pl3   
   2 C2             0.0021    -0.0041     0.0020 C.2     
   3 C3             1.2741     1.8473    -0.0002 C.ar    
   4 C4             2.1374     0.7331    -0.0144 C.ar    
   5 C5             1.2735    -0.4464    -0.0125 C.2     
   6 C6             1.8095     3.1255     0.0009 C.ar    
   7 C7             3.1934     3.2939    -0.0121 C.ar    
   8 C8             4.0426     2.1776    -0.0262 C.ar    
   9 C9             3.5242     0.9181    -0.0266 C.ar    
  10 C10            1.7215    -1.8852    -0.0240 C.3     
  11 C11            1.1961    -2.5930     1.2265 C.3     
  12 C12            1.1730    -2.5801    -1.2719 C.3     
  13 C13            1.6278    -4.0409    -1.2836 C.3     
  14 C14            1.1024    -4.7487    -0.0331 C.3     
  15 C15            1.6509    -4.0538     1.2147 C.3     
  16 C16            3.7671     4.6518    -0.0115 C.2     
  17 O17            3.0342     5.6210     0.0002 O.2     
  18 O18            5.1043     4.8184    -0.0240 O.3     
  19 C19            5.5986     6.1837    -0.0226 C.3     
  20 C20            5.1064     6.9030     1.2349 C.3     
  21 C21            7.1285     6.1723    -0.0379 C.3     
  22 C22            5.0816     6.9145    -1.2634 C.3     
  23 Br23          -1.5316    -1.1102     0.0107 Br      
  24 H24           -0.8178     1.9081     0.0165 H       
  25 H25            1.1580     3.9868     0.0113 H       
  26 H26            5.1134     2.3176    -0.0361 H       
  27 H27            4.1833     0.0626    -0.0372 H       
  28 H28            2.8107    -1.9265    -0.0343 H       
  29 H29            1.5868    -2.0979     2.1154 H       
  30 H30            0.1069    -2.5517     1.2368 H       
  31 H31            0.0838    -2.5388    -1.2616 H       
  32 H32            1.5473    -2.0759    -2.1628 H       
  33 H33            1.2370    -4.5360    -2.1726 H       
  34 H34            2.7170    -4.0822    -1.2939 H       
  35 H35            0.0132    -4.7074    -0.0228 H       
  36 H36            1.4264    -5.7894    -0.0414 H       
  37 H37            2.7401    -4.0951     1.2045 H       
  38 H38            1.2766    -4.5581     2.1056 H       
  39 H39            5.4747     6.3823     2.1189 H       
  40 H40            5.4775     7.9279     1.2360 H       
  41 H41            4.0165     6.9111     1.2458 H       
  42 H42            7.4791     5.6599    -0.9338 H       
  43 H43            7.4995     7.1972    -0.0368 H       
  44 H44            7.4967     5.6516     0.8461 H       
  45 H45            3.9917     6.9227    -1.2526 H       
  46 H46            5.4527     7.9394    -1.2624 H       
  47 H47            5.4322     6.4021    -2.1593 H       
@<TRIPOS>BOND
   1    1    2 1
   2    1    3 1
   3    1   24 1
   4    2   23 1
   5    2    5 2
   6    3    4 ar
   7    3    6 ar
   8    4    5 1
   9    4    9 ar
  10    5   10 1
  11    6    7 ar
  12    6   25 1
  13    7    8 ar
  14    7   16 1
  15    8    9 ar
  16    8   26 1
  17    9   27 1
  18   10   11 1
  19   10   12 1
  20   10   28 1
  21   11   15 1
  22   11   29 1
  23   11   30 1
  24   12   13 1
  25   12   31 1
  26   12   32 1
  27   13   14 1
  28   13   33 1
  29   13   34 1
  30   14   15 1
  31   14   35 1
  32   14   36 1
  33   15   37 1
  34   15   38 1
  35   16   17 2
  36   16   18 1
  37   18   19 1
  38   19   20 1
  39   19   21 1
  40   19   22 1
  41   20   39 1
  42   20   40 1
  43   20   41 1
  44   21   42 1
  45   21   43 1
  46   21   44 1
  47   22   45 1
  48   22   46 1
  49   22   47 1

#	End of record

