#	Name: ASD03330876
#	Creating user name:	WinNT
#	Creation time:	15. 06. 2019 20:38

#	Modifying user name:	WinNT
#	Modification time:	15. 06. 2019 20:38

#	Program:	/corina/corina34_cracker 3.40 0067  02.08.2006

@<TRIPOS>MOLECULE
ASD03330876
  68   71    0    0    0
SMALL
NO_CHARGES


@<TRIPOS>ATOM
   1 N1            -0.8198     1.7208    -0.3865 N.pl3   
   2 C2            -0.6627     0.4005    -0.1007 C.2     
   3 C3             0.6361    -0.2702     0.2630 C.3     
   4 N4             1.3238     0.5333     1.2858 N.3     
   5 C5             2.1874     1.5446     0.6734 C.3     
   6 C6             1.5858     2.0586    -0.6314 C.3     
   7 C7             0.2398     2.7327    -0.3516 C.3     
   8 C8            -2.1344     1.9186    -0.6946 C.2     
   9 N9            -2.7669     0.7735    -0.5863 N.2     
  10 C10           -1.8868    -0.1838    -0.2183 C.2     
  11 C11           -2.1965    -1.6056     0.0134 C.2     
  12 O12           -1.3135    -2.3745     0.3425 O.2     
  13 N13           -3.4583    -2.0540    -0.1394 N.am    
  14 C14           -2.7446     3.2077    -1.0847 C.ar    
  15 C15           -3.5958     3.2744    -2.1912 C.ar    
  16 C16           -4.1636     4.4815    -2.5510 C.ar    
  17 C17           -3.8902     5.6241    -1.8175 C.ar    
  18 C18           -3.0453     5.5634    -0.7181 C.ar    
  19 C19           -2.4773     4.3609    -0.3460 C.ar    
  20 F20           -2.7820     6.6819    -0.0075 F       
  21 F21           -4.4476     6.8020    -2.1738 F       
  22 F22           -3.8625     2.1606    -2.9079 F       
  23 C23            2.0859    -0.3236     2.2039 C.3     
  24 C24           -4.9954    -3.8483    -0.6934 C.2     
  25 C25           -3.7662    -3.4677     0.0909 C.3     
  26 C26           -4.0210    -3.6977     1.5819 C.3     
  27 C27           -4.4338    -5.1532     1.8101 C.3     
  28 O28           -5.8386    -3.0129    -0.9425 O.2     
  29 O29           -5.0722    -7.2882    -2.8019 O.3     
  30 C30           -6.0186    -6.2568    -3.0924 C.3     
  31 C31           -6.3962    -5.5376    -1.7924 C.3     
  32 N32           -5.1577    -5.1171    -1.1180 N.am    
  33 C33           -4.1015    -6.1227    -0.9215 C.3     
  34 C34           -3.8357    -6.8134    -2.2639 C.3     
  35 C35           -2.7435    -3.4005     2.3695 C.3     
  36 C36           -5.1407    -2.7696     2.0571 C.3     
  37 H37            0.4341    -1.2661     0.6572 H       
  38 H38            1.2662    -0.3489    -0.6229 H       
  39 H39            2.3084     2.3785     1.3649 H       
  40 H40            3.1639     1.1055     0.4690 H       
  41 H41            2.2654     2.7806    -1.0842 H       
  42 H42            1.4375     1.2234    -1.3158 H       
  43 H43            0.0462     3.4895    -1.1118 H       
  44 H44            0.2643     3.2010     0.6324 H       
  45 H45           -4.1625    -1.4408    -0.4019 H       
  46 H46           -4.8215     4.5343    -3.4058 H       
  47 H47           -1.8235     4.3140     0.5123 H       
  48 H48            2.7832    -0.9373     1.6336 H       
  49 H49            2.6402     0.2990     2.9062 H       
  50 H50            1.3997    -0.9683     2.7531 H       
  51 H51           -2.9247    -4.0802    -0.2326 H       
  52 H52           -3.6334    -5.8143     1.4778 H       
  53 H53           -4.6219    -5.3154     2.8714 H       
  54 H54           -5.3402    -5.3669     1.2437 H       
  55 H55           -5.5773    -5.5433    -3.7883 H       
  56 H56           -6.9111    -6.6965    -3.5377 H       
  57 H57           -7.0053    -4.6629    -2.0204 H       
  58 H58           -6.9539    -6.2156    -1.1464 H       
  59 H59           -3.1910    -5.6353    -0.5727 H       
  60 H60           -4.4282    -6.8596    -0.1878 H       
  61 H61           -3.1578    -7.6535    -2.1132 H       
  62 H62           -3.3865    -6.1019    -2.9568 H       
  63 H63           -2.4494    -2.3636     2.2069 H       
  64 H64           -2.9250    -3.5644     3.4317 H       
  65 H65           -1.9458    -4.0617     2.0310 H       
  66 H66           -6.0509    -2.9814     1.4960 H       
  67 H67           -5.3223    -2.9335     3.1193 H       
  68 H68           -4.8466    -1.7327     1.8945 H       
@<TRIPOS>BOND
   1    1    2 1
   2    1    7 1
   3    1    8 1
   4    2    3 1
   5    2   10 2
   6    3    4 1
   7    3   37 1
   8    3   38 1
   9    4    5 1
  10    4   23 1
  11    5    6 1
  12    5   39 1
  13    5   40 1
  14    6    7 1
  15    6   41 1
  16    6   42 1
  17    7   43 1
  18    7   44 1
  19    8    9 2
  20    8   14 1
  21    9   10 1
  22   10   11 1
  23   11   12 2
  24   11   13 am
  25   13   25 1
  26   13   45 1
  27   14   15 ar
  28   14   19 ar
  29   15   16 ar
  30   15   22 1
  31   16   17 ar
  32   16   46 1
  33   17   18 ar
  34   17   21 1
  35   18   19 ar
  36   18   20 1
  37   19   47 1
  38   23   48 1
  39   23   49 1
  40   23   50 1
  41   24   28 2
  42   24   32 am
  43   24   25 1
  44   25   26 1
  45   25   51 1
  46   26   27 1
  47   26   35 1
  48   26   36 1
  49   27   52 1
  50   27   53 1
  51   27   54 1
  52   29   30 1
  53   29   34 1
  54   30   31 1
  55   30   55 1
  56   30   56 1
  57   31   32 1
  58   31   57 1
  59   31   58 1
  60   32   33 1
  61   33   34 1
  62   33   59 1
  63   33   60 1
  64   34   61 1
  65   34   62 1
  66   35   63 1
  67   35   64 1
  68   35   65 1
  69   36   66 1
  70   36   67 1
  71   36   68 1

#	End of record

