#	Name: ASD03430533
#	Creating user name:	WinNT
#	Creation time:	15. 06. 2019 20:41

#	Modifying user name:	WinNT
#	Modification time:	15. 06. 2019 20:41

#	Program:	/corina/corina34_cracker 3.40 0067  02.08.2006

@<TRIPOS>MOLECULE
ASD03430533
  57   62    0    0    0
SMALL
NO_CHARGES


@<TRIPOS>ATOM
   1 N1            -0.0819     1.4527     0.5902 N.am    
   2 C2            -0.0919     0.1696     0.9893 C.2     
   3 C3             1.2956    -0.1471     1.5055 C.3     
   4 C4             2.0577     1.1461     1.3292 C.ar    
   5 C5             3.3568     1.5123     1.6042 C.ar    
   6 C6             3.7850     2.7989     1.3289 C.ar    
   7 C7             2.9062     3.7139     0.7781 C.ar    
   8 C8             1.6028     3.3502     0.5016 C.ar    
   9 C9             1.1648     2.0539     0.7765 C.ar    
  10 O10           -1.0352    -0.5915     0.9447 O.2     
  11 O11            1.0944    -1.6152     6.9490 O.3     
  12 C12            0.9106    -0.5653     7.9048 C.3     
  13 C13           -0.2213     0.3442     7.4078 C.3     
  14 O14            0.1580     0.8757     6.1336 O.3     
  15 C15            0.6710    -0.0058     5.2308 C.ar    
  16 C16            1.1404    -1.2490     5.6389 C.ar    
  17 C17            0.7223     0.3467     3.8909 C.ar    
  18 C18            1.2418    -0.5341     2.9609 C.ar    
  19 C19            1.7131    -1.7736     3.3661 C.ar    
  20 C20            1.6623    -2.1307     4.7048 C.ar    
  21 O21            2.2247    -2.6389     2.4504 O.3     
  22 F22            0.7507     4.2504    -0.0356 F       
  23 C23           -1.2432     2.1398     0.0198 C.3     
  24 C24           -0.9397     2.5454    -1.3995 C.ar    
  25 C25           -1.4405     3.7321    -1.9014 C.ar    
  26 C26           -1.1622     4.1041    -3.2033 C.ar    
  27 C27           -0.3827     3.2896    -4.0033 C.ar    
  28 C28            0.1189     2.1034    -3.5011 C.ar    
  29 C29           -0.1558     1.7335    -2.1978 C.ar    
  30 C30           -2.4320     1.2138     0.0343 C.ar    
  31 C31           -3.4902     1.4609     0.8888 C.ar    
  32 C32           -4.5806     0.6114     0.9022 C.ar    
  33 C33           -4.6131    -0.4849     0.0608 C.ar    
  34 C34           -3.5553    -0.7315    -0.7943 C.ar    
  35 C35           -2.4668     0.1204    -0.8108 C.ar    
  36 H36            1.7506    -0.9420     0.9146 H       
  37 H37            4.0406     0.7957     2.0346 H       
  38 H38            4.8031     3.0882     1.5440 H       
  39 H39            3.2407     4.7180     0.5634 H       
  40 H40            0.6423    -0.9911     8.8717 H       
  41 H41            1.8309     0.0112     7.9991 H       
  42 H42           -1.1397    -0.2340     7.3064 H       
  43 H43           -0.3754     1.1592     8.1150 H       
  44 H44            0.3561     1.3118     3.5732 H       
  45 H45            2.0297    -3.0961     5.0202 H       
  46 H46            3.1764    -2.5436     2.3080 H       
  47 H47           -1.4669     3.0275     0.6114 H       
  48 H48           -2.0496     4.3684    -1.2765 H       
  49 H49           -1.5541     5.0309    -3.5957 H       
  50 H50           -0.1658     3.5799    -5.0207 H       
  51 H51            0.7277     1.4669    -4.1262 H       
  52 H52            0.2391     0.8085    -1.8043 H       
  53 H53           -3.4648     2.3174     1.5462 H       
  54 H54           -5.4070     0.8040     1.5702 H       
  55 H55           -5.4647    -1.1490     0.0717 H       
  56 H56           -3.5806    -1.5882    -1.4515 H       
  57 H57           -1.6420    -0.0702    -1.4815 H       
@<TRIPOS>BOND
   1    1    2 am
   2    1    9 1
   3    1   23 1
   4    2    3 1
   5    2   10 2
   6    3    4 1
   7    3   18 1
   8    3   36 1
   9    4    5 ar
  10    4    9 ar
  11    5    6 ar
  12    5   37 1
  13    6    7 ar
  14    6   38 1
  15    7    8 ar
  16    7   39 1
  17    8    9 ar
  18    8   22 1
  19   11   12 1
  20   11   16 1
  21   12   13 1
  22   12   40 1
  23   12   41 1
  24   13   14 1
  25   13   42 1
  26   13   43 1
  27   14   15 1
  28   15   16 ar
  29   15   17 ar
  30   16   20 ar
  31   17   18 ar
  32   17   44 1
  33   18   19 ar
  34   19   20 ar
  35   19   21 1
  36   20   45 1
  37   21   46 1
  38   23   24 1
  39   23   30 1
  40   23   47 1
  41   24   25 ar
  42   24   29 ar
  43   25   26 ar
  44   25   48 1
  45   26   27 ar
  46   26   49 1
  47   27   28 ar
  48   27   50 1
  49   28   29 ar
  50   28   51 1
  51   29   52 1
  52   30   31 ar
  53   30   35 ar
  54   31   32 ar
  55   31   53 1
  56   32   33 ar
  57   32   54 1
  58   33   34 ar
  59   33   55 1
  60   34   35 ar
  61   34   56 1
  62   35   57 1

#	End of record

