#	Name: ASD01814289
#	Creating user name:	WinNT
#	Creation time:	15. 06. 2019 19:32

#	Modifying user name:	WinNT
#	Modification time:	15. 06. 2019 19:32

#	Program:	/corina/corina34_cracker 3.40 0067  02.08.2006

@<TRIPOS>MOLECULE
ASD01814289
  56   61    0    0    0
SMALL
NO_CHARGES


@<TRIPOS>ATOM
   1 C1             0.0111     1.3218    -0.0205 C.ar    
   2 C2             0.0411    -0.0688     0.0008 C.ar    
   3 C3             1.2246    -0.7449     0.0147 C.ar    
   4 C4             2.4337    -0.0327     0.0076 C.ar    
   5 C5             2.3993     1.3829    -0.0141 C.ar    
   6 C6             1.1678     2.0456    -0.0280 C.ar    
   7 C7             3.6738    -0.7052     0.0212 C.ar    
   8 C8             4.8422    -0.0204     0.0139 C.ar    
   9 C9             4.8640     1.3831    -0.0070 C.ar    
  10 C10            3.6624     2.1152    -0.0214 C.ar    
  11 C11            6.1246     2.1352    -0.0152 C.2     
  12 N12            6.0451     3.4860    -0.0360 N.am    
  13 C13            4.8352     4.1051    -0.0487 C.2     
  14 N14            3.7066     3.4578    -0.0418 N.2     
  15 C15            3.6987    -2.2118     0.0449 C.3     
  16 C16            3.5868    -2.7382    -1.3628 C.ar    
  17 C17            4.7292    -2.9611    -2.1091 C.ar    
  18 C18            4.6293    -3.4435    -3.3997 C.ar    
  19 C19            3.3814    -3.7045    -3.9468 C.ar    
  20 C20            2.2367    -3.4800    -3.1959 C.ar    
  21 C21            2.3422    -3.0028    -1.9037 C.ar    
  22 O22            7.2009     1.5653    -0.0032 O.2     
  23 C23            7.2109     4.2468    -0.0441 C.2     
  24 N24            7.9244     4.6086    -1.1331 N.pl3   
  25 N25            9.0215     5.3661    -0.7077 N.2     
  26 C26            8.9876     5.4686     0.5937 C.2     
  27 C27            7.8518     4.7787     1.0614 C.2     
  28 C28            7.4281     4.6397     2.4740 C.ar    
  29 C29            8.2459     5.1274     3.4927 C.ar    
  30 C30            7.8366     4.9902     4.8069 C.ar    
  31 C31            6.6214     4.3691     5.0615 C.ar    
  32 C32            5.8602     3.9087     4.0038 C.ar    
  33 N33            6.2702     4.0566     2.7600 N.ar    
  34 O34            3.2804    -4.1788    -5.2164 O.3     
  35 C35            1.9637    -4.4247    -5.7142 C.3     
  36 H36           -0.9392     1.8347    -0.0358 H       
  37 H37           -0.8871    -0.6209     0.0067 H       
  38 H38            1.2318    -1.8248     0.0316 H       
  39 H39            1.1324     3.1248    -0.0450 H       
  40 H40            5.7751    -0.5645     0.0248 H       
  41 H41            4.8095     5.1847    -0.0653 H       
  42 H42            4.6349    -2.5528     0.4869 H       
  43 H43            2.8616    -2.5798     0.6380 H       
  44 H44            5.7004    -2.7574    -1.6829 H       
  45 H45            5.5219    -3.6171    -3.9824 H       
  46 H46            1.2640    -3.6824    -3.6195 H       
  47 H47            1.4514    -2.8282    -1.3186 H       
  48 H48            7.7127     4.3817    -2.0521 H       
  49 H49            9.7048     5.9951     1.2059 H       
  50 H50            9.1858     5.6052     3.2589 H       
  51 H51            8.4489     5.3578     5.6170 H       
  52 H52            6.2742     4.2464     6.0768 H       
  53 H53            4.9144     3.4251     4.1990 H       
  54 H54            1.3914    -3.4972    -5.7017 H       
  55 H55            2.0257    -4.7996    -6.7358 H       
  56 H56            1.4697    -5.1650    -5.0849 H       
@<TRIPOS>BOND
   1    1    2 ar
   2    1    6 ar
   3    1   36 1
   4    2    3 ar
   5    2   37 1
   6    3    4 ar
   7    3   38 1
   8    4    5 ar
   9    4    7 ar
  10    5    6 ar
  11    5   10 ar
  12    6   39 1
  13    7    8 ar
  14    7   15 1
  15    8    9 ar
  16    8   40 1
  17    9   10 ar
  18    9   11 1
  19   10   14 1
  20   11   12 am
  21   11   22 2
  22   12   13 1
  23   12   23 1
  24   13   14 2
  25   13   41 1
  26   15   16 1
  27   15   42 1
  28   15   43 1
  29   16   17 ar
  30   16   21 ar
  31   17   18 ar
  32   17   44 1
  33   18   19 ar
  34   18   45 1
  35   19   20 ar
  36   19   34 1
  37   20   21 ar
  38   20   46 1
  39   21   47 1
  40   23   24 1
  41   23   27 2
  42   24   25 1
  43   24   48 1
  44   25   26 2
  45   26   27 1
  46   26   49 1
  47   27   28 1
  48   28   29 ar
  49   28   33 ar
  50   29   30 ar
  51   29   50 1
  52   30   31 ar
  53   30   51 1
  54   31   32 ar
  55   31   52 1
  56   32   33 ar
  57   32   53 1
  58   34   35 1
  59   35   54 1
  60   35   55 1
  61   35   56 1

#	End of record

