#	Name: ASD03331461
#	Creating user name:	WinNT
#	Creation time:	15. 06. 2019 20:39

#	Modifying user name:	WinNT
#	Modification time:	15. 06. 2019 20:39

#	Program:	/corina/corina34_cracker 3.40 0067  02.08.2006

@<TRIPOS>MOLECULE
ASD03331461
  60   62    0    0    0
SMALL
NO_CHARGES


@<TRIPOS>ATOM
   1 C1             0.5944     1.5915     0.4650 C.ar    
   2 C2             0.4611     0.1224     0.3508 C.2     
   3 N3            -0.6299    -0.6056     0.7061 N.pl3   
   4 C4            -0.3538    -1.9109     0.4483 C.2     
   5 C5             0.9011    -1.9631    -0.0641 C.2     
   6 N6             1.3758    -0.6975    -0.1166 N.2     
   7 C7             1.6164    -3.1788    -0.4908 C.2     
   8 N8             2.8669    -3.0863    -0.9850 N.am    
   9 C9            -0.2719     2.3116     1.2879 C.ar    
  10 O10            1.0784    -4.2654    -0.3970 O.2     
  11 C11            3.5781    -4.2949    -1.4092 C.3     
  12 C12            3.1913    -4.6350    -2.8499 C.3     
  13 C13            5.0641    -4.0569    -1.3308 C.2     
  14 C14            3.4630    -3.4276    -3.7495 C.3     
  15 C15           -1.9031    -0.1435     1.2661 C.3     
  16 C16           -2.9344    -1.2676     1.1033 C.3     
  17 N17           -2.3767    -2.5311     1.6059 N.3     
  18 C18           -1.3184    -3.0379     0.7138 C.3     
  19 O19            5.5068    -2.9362    -1.4685 O.2     
  20 N20            5.9011    -5.0894    -1.1078 N.am    
  21 C21            7.3332    -4.8441    -0.9201 C.3     
  22 C22            4.0199    -5.8273    -3.3324 C.3     
  23 C23            1.7043    -4.9903    -2.9084 C.3     
  24 C24           -0.1421     3.6814     1.3905 C.ar    
  25 C25            0.8443     4.3409     0.6790 C.ar    
  26 C26            1.7065     3.6325    -0.1387 C.ar    
  27 C27            1.5907     2.2617    -0.2454 C.ar    
  28 C28           -3.4327    -3.5349     1.7933 C.3     
  29 C29           -4.1966    -0.9184     1.8942 C.3     
  30 H30            3.2960    -2.2196    -1.0598 H       
  31 H31           -1.0428     1.7980     1.8433 H       
  32 H32            3.3079    -5.1239    -0.7551 H       
  33 H33            4.5224    -3.1745    -3.7078 H       
  34 H34            3.1875    -3.6699    -4.7759 H       
  35 H35            2.8727    -2.5782    -3.4057 H       
  36 H36           -1.7769     0.0894     2.3234 H       
  37 H37           -2.2395     0.7445     0.7309 H       
  38 H38           -3.1874    -1.3773     0.0487 H       
  39 H39           -1.7580    -3.3754    -0.2248 H       
  40 H40           -0.7956    -3.8646     1.1948 H       
  41 H41            5.5553    -5.9950    -1.0715 H       
  42 H42            7.8453    -5.7917    -0.7532 H       
  43 H43            7.7392    -4.3635    -1.8102 H       
  44 H44            7.4805    -4.1946    -0.0573 H       
  45 H45            3.7863    -6.7017    -2.7250 H       
  46 H46            3.7830    -6.0359    -4.3757 H       
  47 H47            5.0806    -5.5937    -3.2404 H       
  48 H48            1.1140    -4.1409    -2.5646 H       
  49 H49            1.4287    -5.2326    -3.9348 H       
  50 H50            1.5107    -5.8504    -2.2675 H       
  51 H51           -0.8121     4.2400     2.0272 H       
  52 H52            0.9414     5.4133     0.7621 H       
  53 H53            2.4742     4.1531    -0.6918 H       
  54 H54            2.2646     1.7098    -0.8838 H       
  55 H55           -3.9262    -3.7254     0.8403 H       
  56 H56           -2.9926    -4.4600     2.1658 H       
  57 H57           -4.1628    -3.1643     2.5129 H       
  58 H58           -4.6142     0.0157     1.5182 H       
  59 H59           -4.9300    -1.7165     1.7791 H       
  60 H60           -3.9450    -0.8054     2.9487 H       
@<TRIPOS>BOND
   1    1    2 1
   2    1    9 ar
   3    1   27 ar
   4    2    3 1
   5    2    6 2
   6    3    4 1
   7    3   15 1
   8    4    5 2
   9    4   18 1
  10    5    6 1
  11    5    7 1
  12    7    8 am
  13    7   10 2
  14    8   11 1
  15    8   30 1
  16    9   24 ar
  17    9   31 1
  18   11   12 1
  19   11   13 1
  20   11   32 1
  21   12   14 1
  22   12   22 1
  23   12   23 1
  24   13   19 2
  25   13   20 am
  26   14   33 1
  27   14   34 1
  28   14   35 1
  29   15   16 1
  30   15   36 1
  31   15   37 1
  32   16   17 1
  33   16   29 1
  34   16   38 1
  35   17   18 1
  36   17   28 1
  37   18   39 1
  38   18   40 1
  39   20   21 1
  40   20   41 1
  41   21   42 1
  42   21   43 1
  43   21   44 1
  44   22   45 1
  45   22   46 1
  46   22   47 1
  47   23   48 1
  48   23   49 1
  49   23   50 1
  50   24   25 ar
  51   24   51 1
  52   25   26 ar
  53   25   52 1
  54   26   27 ar
  55   26   53 1
  56   27   54 1
  57   28   55 1
  58   28   56 1
  59   28   57 1
  60   29   58 1
  61   29   59 1
  62   29   60 1

#	End of record

