#	Name: ASD06170020
#	Creating user name:	WinNT
#	Creation time:	15. 06. 2019 21:05

#	Modifying user name:	WinNT
#	Modification time:	15. 06. 2019 21:05

#	Program:	/corina/corina34_cracker 3.40 0067  02.08.2006

@<TRIPOS>MOLECULE
ASD06170020
  71   76    0    0    0
SMALL
NO_CHARGES


@<TRIPOS>ATOM
   1 N1            -0.5216     1.3736    -1.6999 N.pl3   
   2 N2            -0.4372     0.0169    -1.3733 N.am    
   3 C3             0.8643    -0.3378    -1.3447 C.2     
   4 C4             1.6347     0.8720    -1.6733 C.2     
   5 C5             0.7133     1.8804    -1.8780 C.2     
   6 C6             3.0953     0.9853    -1.7647 C.2     
   7 O7             3.6064     2.0530    -2.0469 O.2     
   8 N8             3.8705    -0.0933    -1.5359 N.am    
   9 C9             0.7305     5.0970    -3.9531 C.3     
  10 C10            0.4673     3.6245    -3.6270 C.3     
  11 C11            1.0355     3.3072    -2.2404 C.3     
  12 C12            0.4038     4.2520    -1.2134 C.3     
  13 C13            0.6695     5.7002    -1.6327 C.3     
  14 O14            0.1430     5.9196    -2.9429 O.3     
  15 C15           -1.5203    -0.8306    -1.1186 C.ar    
  16 C16           -1.5926    -2.0724    -1.7365 C.ar    
  17 C17           -2.6632    -2.9071    -1.4824 C.ar    
  18 C18           -3.6627    -2.5074    -0.6143 C.ar    
  19 C19           -3.5936    -1.2717     0.0025 C.ar    
  20 C20           -2.5228    -0.4347    -0.2428 C.ar    
  21 O21            1.3128    -1.4413    -1.0956 O.2     
  22 C22           -1.7688     2.1303    -1.8345 C.3     
  23 C23            5.2623     0.0459    -1.4710 C.ar    
  24 C24            5.8208     1.2089    -0.9567 C.ar    
  25 C25            7.1948     1.3451    -0.8925 C.ar    
  26 C26            8.0161     0.3183    -1.3426 C.ar    
  27 C27            7.4575    -0.8422    -1.8558 C.ar    
  28 C28            6.0843    -0.9810    -1.9153 C.ar    
  29 O29            9.3681     0.4521    -1.2801 O.3     
  30 N30           11.2088    -0.3685     2.3182 N.ar    
  31 C31            9.9153    -0.5456     2.1828 C.ar    
  32 C32            9.2610    -0.2799     0.9869 C.ar    
  33 C33            9.9801     0.1849    -0.1005 C.ar    
  34 C34           11.3723     0.3719     0.0565 C.ar    
  35 C35           12.1670     0.8402    -1.0000 C.ar    
  36 C36           13.5048     1.0105    -0.8174 C.ar    
  37 C37           14.1006     0.7238     0.4141 C.ar    
  38 C38           13.3478     0.2622     1.4701 C.ar    
  39 C39           11.9654     0.0782     1.3086 C.ar    
  40 O40           15.4381     0.9023     0.5705 O.3     
  41 C41           16.1652     1.3831    -0.5618 C.3     
  42 F42            7.7391     2.4761    -0.3928 F       
  43 H43            3.4642    -0.9660    -1.4164 H       
  44 H44            1.8053     5.2752    -3.9873 H       
  45 H45            0.2907     5.3394    -4.9205 H       
  46 H46           -0.6064     3.4366    -3.6324 H       
  47 H47            0.9522     2.9941    -4.3724 H       
  48 H48            2.1166     3.4460    -2.2489 H       
  49 H49           -0.6711     4.0767    -1.1701 H       
  50 H50            0.8433     4.0702    -0.2326 H       
  51 H51            0.1857     6.3770    -0.9285 H       
  52 H52            1.7435     5.8863    -1.6366 H       
  53 H53           -0.8128    -2.3848    -2.4151 H       
  54 H54           -2.7201    -3.8728    -1.9626 H       
  55 H55           -4.4992    -3.1617    -0.4178 H       
  56 H56           -4.3758    -0.9625     0.6800 H       
  57 H57           -2.4674     0.5286     0.2424 H       
  58 H58           -2.6171     1.4525    -1.7393 H       
  59 H59           -1.8200     2.8884    -1.0531 H       
  60 H60           -1.7973     2.6130    -2.8114 H       
  61 H61            5.1819     2.0065    -0.6074 H       
  62 H62            8.0962    -1.6398    -2.2055 H       
  63 H63            5.6499    -1.8870    -2.3114 H       
  64 H64            9.3440    -0.9079     3.0247 H       
  65 H65            8.1955    -0.4361     0.9056 H       
  66 H66           11.7183     1.0649    -1.9564 H       
  67 H67           14.1132     1.3710    -1.6336 H       
  68 H68           13.8179     0.0430     2.4174 H       
  69 H69           17.2193     1.4807    -0.3020 H       
  70 H70           16.0582     0.6798    -1.3876 H       
  71 H71           15.7728     2.3554    -0.8594 H       
@<TRIPOS>BOND
   1    1    2 1
   2    1    5 1
   3    1   22 1
   4    2    3 am
   5    2   15 1
   6    3    4 1
   7    3   21 2
   8    4    5 2
   9    4    6 1
  10    5   11 1
  11    6    7 2
  12    6    8 am
  13    8   23 1
  14    8   43 1
  15    9   10 1
  16    9   14 1
  17    9   44 1
  18    9   45 1
  19   10   11 1
  20   10   46 1
  21   10   47 1
  22   11   12 1
  23   11   48 1
  24   12   13 1
  25   12   49 1
  26   12   50 1
  27   13   14 1
  28   13   51 1
  29   13   52 1
  30   15   16 ar
  31   15   20 ar
  32   16   17 ar
  33   16   53 1
  34   17   18 ar
  35   17   54 1
  36   18   19 ar
  37   18   55 1
  38   19   20 ar
  39   19   56 1
  40   20   57 1
  41   22   58 1
  42   22   59 1
  43   22   60 1
  44   23   24 ar
  45   23   28 ar
  46   24   25 ar
  47   24   61 1
  48   25   26 ar
  49   25   42 1
  50   26   27 ar
  51   26   29 1
  52   27   28 ar
  53   27   62 1
  54   28   63 1
  55   29   33 1
  56   30   31 ar
  57   30   39 ar
  58   31   32 ar
  59   31   64 1
  60   32   33 ar
  61   32   65 1
  62   33   34 ar
  63   34   35 ar
  64   34   39 ar
  65   35   36 ar
  66   35   66 1
  67   36   37 ar
  68   36   67 1
  69   37   38 ar
  70   37   40 1
  71   38   39 ar
  72   38   68 1
  73   40   41 1
  74   41   69 1
  75   41   70 1
  76   41   71 1

#	End of record

