#	Name: ASD03240480
#	Creating user name:	WinNT
#	Creation time:	15. 06. 2019 20:35

#	Modifying user name:	WinNT
#	Modification time:	15. 06. 2019 20:35

#	Program:	/corina/corina34_cracker 3.40 0067  02.08.2006

@<TRIPOS>MOLECULE
ASD03240480
  41   43    0    0    0
SMALL
NO_CHARGES


@<TRIPOS>ATOM
   1 O1            -0.0164     1.3548     0.0095 O.3     
   2 C2             1.7840     3.7097    -2.0113 C.ar    
   3 C3             0.9238     3.3143    -1.0029 C.ar    
   4 C4             1.2071     2.0549    -0.2253 C.3     
   5 C5             1.5293     4.8624    -2.7266 C.ar    
   6 C6             0.4035     5.6279    -2.4314 C.ar    
   7 C7            -0.4592     5.2254    -1.4144 C.ar    
   8 C8            -0.1951     4.0710    -0.7053 C.ar    
   9 C9             0.1247     6.8690    -3.1972 C.2     
  10 C10           -0.9351     7.7084    -3.0140 C.2     
  11 N11           -0.8196     8.7120    -3.9069 N.pl3   
  12 N12            0.3379     8.4934    -4.6636 N.2     
  13 C13            0.9095     7.3970    -4.2407 C.2     
  14 C14            0.0437    -0.0027     0.0298 C.ar    
  15 C15           -1.1214    -0.7483     0.1356 C.ar    
  16 C16            1.8528     2.4166     1.1137 C.3     
  17 N17            2.2379     1.1872     1.8196 N.3     
  18 C18            2.8627     1.4963     3.1127 C.3     
  19 C19            1.2699    -0.6454    -0.0611 C.ar    
  20 C20            1.3282    -2.0254    -0.0407 C.ar    
  21 C21            0.1660    -2.7662     0.0696 C.ar    
  22 C22           -1.0577    -2.1281     0.1555 C.ar    
  23 H23            2.6589     3.1179    -2.2365 H       
  24 H24            1.8851     1.4203    -0.7960 H       
  25 H25            2.2017     5.1704    -3.5136 H       
  26 H26           -1.3334     5.8153    -1.1815 H       
  27 H27           -0.8636     3.7578     0.0830 H       
  28 H28           -1.7237     7.5904    -2.2856 H       
  29 H29           -1.4328     9.4568    -4.0078 H       
  30 H30            1.8210     6.9668    -4.6287 H       
  31 H31           -2.0774    -0.2504     0.2027 H       
  32 H32            2.7386     3.0267     0.9369 H       
  33 H33            1.1413     2.9764     1.7208 H       
  34 H34            1.4447     0.5749     1.9384 H       
  35 H35            3.7555     2.1000     2.9497 H       
  36 H36            2.1582     2.0497     3.7336 H       
  37 H37            3.1380     0.5685     3.6142 H       
  38 H38            2.1780    -0.0673    -0.1480 H       
  39 H39            2.2825    -2.5262    -0.1114 H       
  40 H40            0.2137    -3.8450     0.0850 H       
  41 H41           -1.9641    -2.7089     0.2419 H       
@<TRIPOS>BOND
   1    1   14 1
   2    1    4 1
   3    2    3 ar
   4    2    5 ar
   5    2   23 1
   6    3    4 1
   7    3    8 ar
   8    4   16 1
   9    4   24 1
  10    5    6 ar
  11    5   25 1
  12    6    7 ar
  13    6    9 1
  14    7    8 ar
  15    7   26 1
  16    8   27 1
  17    9   10 2
  18    9   13 1
  19   10   11 1
  20   10   28 1
  21   11   12 1
  22   11   29 1
  23   12   13 2
  24   13   30 1
  25   14   15 ar
  26   14   19 ar
  27   15   22 ar
  28   15   31 1
  29   16   17 1
  30   16   32 1
  31   16   33 1
  32   17   18 1
  33   17   34 1
  34   18   35 1
  35   18   36 1
  36   18   37 1
  37   19   20 ar
  38   19   38 1
  39   20   21 ar
  40   20   39 1
  41   21   22 ar
  42   21   40 1
  43   22   41 1

#	End of record

