#	Name: ASD02408043
#	Creating user name:	WinNT
#	Creation time:	15. 06. 2019 20:21

#	Modifying user name:	WinNT
#	Modification time:	15. 06. 2019 20:21

#	Program:	/corina/corina34_cracker 3.40 0067  02.08.2006

@<TRIPOS>MOLECULE
ASD02408043
  40   42    0    0    0
SMALL
NO_CHARGES


@<TRIPOS>ATOM
   1 C1             0.5697     0.6050    -0.0791 C.2     
   2 C2             0.8268    -0.6859    -0.2954 C.2     
   3 C3             1.6508     1.6548    -0.0605 C.3     
   4 C4             1.8413     2.2043    -1.4508 C.2     
   5 N5             2.7682     3.1610    -1.6514 N.am    
   6 N6             1.1063     1.7337    -2.4214 N.2     
   7 C7             1.2321     2.1838    -3.6764 C.2     
   8 C8             2.1765     3.1854    -3.9557 C.2     
   9 C9             2.9656     3.6754    -2.8835 C.2     
  10 N10            0.4467     1.6713    -4.6796 N.pl3   
  11 O11            3.7999     4.5443    -3.0698 O.2     
  12 S12           -0.6733    -1.6027    -0.2437 S.3     
  13 C13           -1.5923    -0.1381     0.0783 C.2     
  14 C14           -0.7659     0.9081     0.1213 C.2     
  15 C15            1.0098     1.4084    -6.0109 C.3     
  16 C16           -0.9713     1.3698    -4.4402 C.3     
  17 C17           -1.2414    -0.0830    -4.8440 C.3     
  18 C18           -0.7883    -0.2991    -6.2897 C.3     
  19 C19            0.7129    -0.0449    -6.3937 C.3     
  20 C20           -1.0883    -1.7400    -6.7080 C.3     
  21 C21            2.3415     3.6932    -5.2844 C.1     
  22 N22            2.4724     4.0959    -6.3385 N.1     
  23 H23            1.8062    -1.1041    -0.4751 H       
  24 H24            1.3621     2.4618     0.6128 H       
  25 H25            2.5838     1.2095     0.2851 H       
  26 H26            3.2973     3.4828    -0.9049 H       
  27 H27           -2.6626    -0.0921     0.2155 H       
  28 H28           -1.1118     1.9144     0.3065 H       
  29 H29            0.5536     2.0786    -6.7395 H       
  30 H30            2.0879     1.5678    -5.9897 H       
  31 H31           -1.1998     1.5037    -3.3828 H       
  32 H32           -1.5926     2.0368    -5.0378 H       
  33 H33           -0.6882    -0.7526    -4.1854 H       
  34 H34           -2.3083    -0.2910    -4.7622 H       
  35 H35           -1.3240     0.3879    -6.9448 H       
  36 H36            1.0417    -0.2211    -7.4179 H       
  37 H37            1.2434    -0.7179    -5.7200 H       
  38 H38           -2.1598    -1.9249    -6.6314 H       
  39 H39           -0.7656    -1.8941    -7.7377 H       
  40 H40           -0.5532    -2.4274    -6.0528 H       
@<TRIPOS>BOND
   1    1    2 2
   2    1    3 1
   3    1   14 1
   4    2   12 1
   5    2   23 1
   6    3    4 1
   7    3   24 1
   8    3   25 1
   9    4    5 1
  10    4    6 2
  11    5    9 am
  12    5   26 1
  13    6    7 1
  14    7    8 2
  15    7   10 1
  16    8    9 1
  17    8   21 1
  18    9   11 2
  19   10   16 1
  20   10   15 1
  21   12   13 1
  22   13   14 2
  23   13   27 1
  24   14   28 1
  25   15   19 1
  26   15   29 1
  27   15   30 1
  28   16   17 1
  29   16   31 1
  30   16   32 1
  31   17   18 1
  32   17   33 1
  33   17   34 1
  34   18   19 1
  35   18   20 1
  36   18   35 1
  37   19   36 1
  38   19   37 1
  39   20   38 1
  40   20   39 1
  41   20   40 1
  42   21   22 3

#	End of record

