#	Name: ASD01914618
#	Creating user name:	WinNT
#	Creation time:	15. 06. 2019 20:03

#	Modifying user name:	WinNT
#	Modification time:	15. 06. 2019 20:03

#	Program:	/corina/corina34_cracker 3.40 0067  02.08.2006

@<TRIPOS>MOLECULE
ASD01914618
  36   39    0    0    0
SMALL
NO_CHARGES


@<TRIPOS>ATOM
   1 C1            -0.0167     1.3767     0.0096 C.2     
   2 N2             0.0021    -0.0041     0.0020 N.pl3   
   3 C3             1.2672     1.7857    -0.0005 C.2     
   4 N4             2.0503     0.6717    -0.0122 N.2     
   5 C5             1.2875    -0.3920    -0.0100 C.2     
   6 C6             1.7242     3.1428     0.0005 C.1     
   7 C7             2.0989     4.2554     0.0013 C.1     
   8 C8             2.5559     5.6125     0.0022 C.ar    
   9 C9             3.9249     5.8923    -0.0091 C.ar    
  10 C10            4.3576     7.2021    -0.0080 C.ar    
  11 C11            3.4398     8.2374     0.0042 C.ar    
  12 C12            1.6347     6.6637     0.0087 C.ar    
  13 C13           -1.2033    -0.7166     0.0058 C.ar    
  14 C14           -2.3727     0.0005    -0.2708 C.ar    
  15 O15           -2.3278     1.3257    -0.5615 O.3     
  16 C16           -1.3110     2.1447     0.0316 C.3     
  17 C17           -1.2550    -2.0695     0.2721 C.ar    
  18 C18           -2.4752    -2.7231     0.2773 C.ar    
  19 C19           -3.6361    -2.0189     0.0172 C.ar    
  20 C20           -3.5889    -0.6650    -0.2555 C.ar    
  21 C21            2.0823     7.9680     0.0154 C.ar    
  22 C22            1.0909     9.1029     0.0292 C.3     
  23 H23            1.6352    -1.4145    -0.0167 H       
  24 H24            4.6423     5.0852    -0.0183 H       
  25 H25            5.4153     7.4199    -0.0164 H       
  26 H26            3.7845     9.2610     0.0053 H       
  27 H27            0.5751     6.4550     0.0126 H       
  28 H28           -1.5847     2.3835     1.0594 H       
  29 H29           -1.1988     3.0645    -0.5424 H       
  30 H30           -0.3464    -2.6168     0.4754 H       
  31 H31           -2.5202    -3.7821     0.4841 H       
  32 H32           -4.5870    -2.5309     0.0267 H       
  33 H33           -4.5016    -0.1239    -0.4570 H       
  34 H34            0.8425     9.3807    -0.9951 H       
  35 H35            0.1863     8.7888     0.5500 H       
  36 H36            1.5267     9.9599     0.5426 H       
@<TRIPOS>BOND
   1    1    2 1
   2    1    3 2
   3    1   16 1
   4    2   13 1
   5    2    5 1
   6    3    4 1
   7    3    6 1
   8    4    5 2
   9    5   23 1
  10    6    7 3
  11    7    8 1
  12    8    9 ar
  13    8   12 ar
  14    9   10 ar
  15    9   24 1
  16   10   11 ar
  17   10   25 1
  18   11   21 ar
  19   11   26 1
  20   12   21 ar
  21   12   27 1
  22   13   14 ar
  23   13   17 ar
  24   14   15 1
  25   14   20 ar
  26   15   16 1
  27   16   28 1
  28   16   29 1
  29   17   18 ar
  30   17   30 1
  31   18   19 ar
  32   18   31 1
  33   19   20 ar
  34   19   32 1
  35   20   33 1
  36   21   22 1
  37   22   34 1
  38   22   35 1
  39   22   36 1

#	End of record

