#	Name: ASD01810708
#	Creating user name:	WinNT
#	Creation time:	15. 06. 2019 19:25

#	Modifying user name:	WinNT
#	Modification time:	15. 06. 2019 19:25

#	Program:	/corina/corina34_cracker 3.40 0067  02.08.2006

@<TRIPOS>MOLECULE
ASD01810708
  57   61    0    0    0
SMALL
NO_CHARGES


@<TRIPOS>ATOM
   1 C1            -0.2757     1.6174     1.2150 C.2     
   2 C2            -0.3497     0.2805     1.8398 C.ar    
   3 C3             0.7824    -0.5430     1.8956 C.ar    
   4 C4             0.6611    -1.7847     2.4912 C.ar    
   5 C5            -0.5645    -2.1714     3.0090 C.ar    
   6 N6            -1.6145    -1.3736     2.9419 N.ar    
   7 C7            -1.5467    -0.1803     2.3892 C.ar    
   8 O8             0.7736     2.0110     0.7439 O.2     
   9 N9            -1.3730     2.3983     1.1624 N.am    
  10 C10           -1.2792     3.7041     0.6698 C.ar    
  11 C11           -2.3366     4.2551    -0.0447 C.ar    
  12 C12           -2.2487     5.5448    -0.5335 C.ar    
  13 C13           -1.1103     6.2943    -0.3159 C.ar    
  14 C14           -0.0429     5.7503     0.4003 C.ar    
  15 C15           -0.1340     4.4507     0.8990 C.ar    
  16 C16           -3.5827     3.4432    -0.2876 C.3     
  17 C17            1.1780     6.5508     0.6345 C.2     
  18 O18            2.2396     5.9948     0.8374 O.2     
  19 C19            0.1673     9.9187     1.4889 C.3     
  20 C20           -0.0942     8.7482     0.5167 C.3     
  21 N21            1.1136     7.8970     0.6229 N.am    
  22 C22            2.2347     8.8612     0.7135 C.3     
  23 C23            1.7029     9.9932     1.6186 C.3     
  24 C24            0.9278    11.1374     0.9623 C.3     
  25 C25            1.0467    11.2893    -0.5323 C.ar    
  26 C26           -0.0860    11.4986    -1.2971 C.ar    
  27 C27            0.0204    11.6382    -2.6673 C.ar    
  28 C28            1.2651    11.5682    -3.2760 C.ar    
  29 C29            2.4001    11.3581    -2.5064 C.ar    
  30 C30            2.2890    11.2248    -1.1359 C.ar    
  31 O31            1.3723    11.7047    -4.6238 O.3     
  32 C32            2.6852    11.6216    -5.1819 C.3     
  33 Cl33          -0.7222    -3.7298     3.7574 Cl      
  34 H34            1.7257    -0.2162     1.4835 H       
  35 H35            1.5125    -2.4464     2.5519 H       
  36 H36           -2.4262     0.4457     2.3573 H       
  37 H37           -2.2278     2.0547     1.4661 H       
  38 H38           -3.0735     5.9676    -1.0880 H       
  39 H39           -1.0452     7.3016    -0.7002 H       
  40 H40            0.6869     4.0260     1.4577 H       
  41 H41           -4.2871     3.6060     0.5281 H       
  42 H42           -4.0391     3.7507    -1.2285 H       
  43 H43           -3.3233     2.3857    -0.3381 H       
  44 H44           -0.5084    10.0320     2.3366 H       
  45 H45           -0.9799     8.1911     0.8221 H       
  46 H46           -0.2097     9.1187    -0.5019 H       
  47 H47            3.1062     8.3893     1.1674 H       
  48 H48            2.4830     9.2493    -0.2743 H       
  49 H49            2.1917    10.1421     2.5815 H       
  50 H50            0.8353    12.0678     1.5225 H       
  51 H51           -1.0548    11.5527    -0.8228 H       
  52 H52           -0.8647    11.8013    -3.2643 H       
  53 H53            3.3702    11.3032    -2.9779 H       
  54 H54            3.1728    11.0660    -0.5358 H       
  55 H55            2.6290    11.7469    -6.2632 H       
  56 H56            3.3109    12.4068    -4.7573 H       
  57 H57            3.1173    10.6480    -4.9509 H       
@<TRIPOS>BOND
   1    1    2 1
   2    1    8 2
   3    1    9 am
   4    2    3 ar
   5    2    7 ar
   6    3    4 ar
   7    3   34 1
   8    4    5 ar
   9    4   35 1
  10    5    6 ar
  11    5   33 1
  12    6    7 ar
  13    7   36 1
  14    9   10 1
  15    9   37 1
  16   10   11 ar
  17   10   15 ar
  18   11   12 ar
  19   11   16 1
  20   12   13 ar
  21   12   38 1
  22   13   14 ar
  23   13   39 1
  24   14   15 ar
  25   14   17 1
  26   15   40 1
  27   16   41 1
  28   16   42 1
  29   16   43 1
  30   17   18 2
  31   17   21 am
  32   19   20 1
  33   19   24 1
  34   19   23 1
  35   19   44 1
  36   20   21 1
  37   20   45 1
  38   20   46 1
  39   21   22 1
  40   22   23 1
  41   22   47 1
  42   22   48 1
  43   23   24 1
  44   23   49 1
  45   24   25 1
  46   24   50 1
  47   25   26 ar
  48   25   30 ar
  49   26   27 ar
  50   26   51 1
  51   27   28 ar
  52   27   52 1
  53   28   29 ar
  54   28   31 1
  55   29   30 ar
  56   29   53 1
  57   30   54 1
  58   31   32 1
  59   32   55 1
  60   32   56 1
  61   32   57 1

#	End of record

