#	Name: ASD02560281
#	Creating user name:	WinNT
#	Creation time:	15. 06. 2019 20:25

#	Modifying user name:	WinNT
#	Modification time:	15. 06. 2019 20:25

#	Program:	/corina/corina34_cracker 3.40 0067  02.08.2006

@<TRIPOS>MOLECULE
ASD02560281
  39   41    0    0    0
SMALL
NO_CHARGES


@<TRIPOS>ATOM
   1 C1            -0.0092     1.3381     0.0874 C.2     
   2 O2            -0.0095     0.0041    -0.1011 O.3     
   3 C3            -1.2759    -0.4057     0.0991 C.2     
   4 N4            -1.9860     0.6558     0.3939 N.2     
   5 N5            -1.2237     1.6922     0.3905 N.2     
   6 N6            -1.7414    -1.7055     0.0102 N.pl3   
   7 C7             1.1830     2.2530    -0.0257 C.3     
   8 C8             1.8609     2.3630     1.3156 C.ar    
   9 C9             2.8657     1.4759     1.6579 C.ar    
  10 C10            3.4881     1.5777     2.8894 C.ar    
  11 C11            3.1061     2.5654     3.7776 C.ar    
  12 C12            2.1018     3.4518     3.4364 C.ar    
  13 C13            1.4826     3.3545     2.2029 C.ar    
  14 C14           -3.1093    -1.9676     0.1279 C.ar    
  15 C15           -4.0375    -1.0112    -0.2639 C.ar    
  16 C16           -5.3883    -1.2733    -0.1462 C.ar    
  17 C17           -5.8173    -2.4861     0.3614 C.ar    
  18 C18           -4.8959    -3.4404     0.7523 C.ar    
  19 C19           -3.5437    -3.1872     0.6316 C.ar    
  20 Cl20           3.3453     0.2350     0.5427 Cl      
  21 Cl21           0.2218     4.4682     1.7742 Cl      
  22 C22           -7.2921    -2.7682     0.4892 C.3     
  23 O23           -7.7671    -3.3748    -0.7143 O.3     
  24 C24           -9.1620    -3.6849    -0.6976 C.3     
  25 H25           -1.1185    -2.4350    -0.1338 H       
  26 H26            1.8842     1.8475    -0.7551 H       
  27 H27            0.8536     3.2407    -0.3485 H       
  28 H28            4.2724     0.8850     3.1568 H       
  29 H29            3.5922     2.6445     4.7388 H       
  30 H30            1.8033     4.2229     4.1311 H       
  31 H31           -3.7032    -0.0636    -0.6597 H       
  32 H32           -6.1105    -0.5302    -0.4506 H       
  33 H33           -5.2342    -4.3863     1.1486 H       
  34 H34           -2.8246    -3.9330     0.9367 H       
  35 H35           -7.4615    -3.4435     1.3279 H       
  36 H36           -7.8271    -1.8342     0.6610 H       
  37 H37           -9.3702    -4.3792     0.1165 H       
  38 H38           -9.7358    -2.7699    -0.5504 H       
  39 H39           -9.4439    -4.1420    -1.6461 H       
@<TRIPOS>BOND
   1    1    2 1
   2    1    7 1
   3    1    5 2
   4    2    3 1
   5    3    4 2
   6    3    6 1
   7    4    5 1
   8    6   14 1
   9    6   25 1
  10    7    8 1
  11    7   26 1
  12    7   27 1
  13    8    9 ar
  14    8   13 ar
  15    9   10 ar
  16    9   20 1
  17   10   11 ar
  18   10   28 1
  19   11   12 ar
  20   11   29 1
  21   12   13 ar
  22   12   30 1
  23   13   21 1
  24   14   15 ar
  25   14   19 ar
  26   15   16 ar
  27   15   31 1
  28   16   17 ar
  29   16   32 1
  30   17   18 ar
  31   17   22 1
  32   18   19 ar
  33   18   33 1
  34   19   34 1
  35   22   23 1
  36   22   35 1
  37   22   36 1
  38   23   24 1
  39   24   37 1
  40   24   38 1
  41   24   39 1

#	End of record

