#	Name: ASD01410711
#	Creating user name:	WinNT
#	Creation time:	15. 06. 2019 19:18

#	Modifying user name:	WinNT
#	Modification time:	15. 06. 2019 19:18

#	Program:	/corina/corina34_cracker 3.40 0067  02.08.2006

@<TRIPOS>MOLECULE
ASD01410711
  45   47    0    0    0
SMALL
NO_CHARGES


@<TRIPOS>ATOM
   1 C1             1.0907     2.0270    -2.4193 C.ar    
   2 C2             1.2498     0.7173    -2.8772 C.ar    
   3 C3             2.4348     0.0486    -2.6457 C.ar    
   4 C4             3.4671     0.6715    -1.9725 C.ar    
   5 C5             3.3305     1.9770    -1.5163 C.ar    
   6 C6             2.1236     2.6546    -1.7315 C.ar    
   7 N7             4.2551     2.8093    -0.8398 N.3     
   8 C8             3.8267     4.1691    -1.1489 C.3     
   9 C9             2.2795     3.9903    -1.0801 C.3     
  10 C10            1.6876     5.2113    -1.7503 C.3     
  11 C11            2.1259     6.4284    -0.9142 C.3     
  12 O12            3.5362     6.4732    -0.7271 O.3     
  13 C13            4.1607     5.2906    -0.1880 C.3     
  14 C14            4.7551    -0.0724    -1.7297 C.3     
  15 C15           -0.1349     2.7263    -2.6633 C.1     
  16 C16            5.6764     5.4839    -0.1101 C.3     
  17 C17            3.5950     4.9817     1.1996 C.3     
  18 C18            4.3287     3.7773     1.7929 C.3     
  19 C19            4.2646     3.8428     3.3202 C.3     
  20 C20            5.9893     6.6348     0.8111 C.2     
  21 O21            5.0938     7.3122     1.2572 O.2     
  22 O22            7.2629     6.9072     1.1361 O.3     
  23 N23           -1.1071     3.2811    -2.8569 N.1     
  24 H24            0.4477     0.2289    -3.4106 H       
  25 H25            2.5551    -0.9671    -2.9926 H       
  26 H26            4.2332     2.6405     0.1548 H       
  27 H27            4.1402     4.4379    -2.1576 H       
  28 H28            1.9574     3.9359    -0.0402 H       
  29 H29            2.0691     5.3004    -2.7675 H       
  30 H30            0.6001     5.1395    -1.7633 H       
  31 H31            1.8073     7.3391    -1.4214 H       
  32 H32            1.6411     6.3807     0.0610 H       
  33 H33            5.4361     0.0986    -2.5634 H       
  34 H34            5.2129     0.2853    -0.8074 H       
  35 H35            4.5478    -1.1389    -1.6426 H       
  36 H36            6.1394     4.5749     0.2738 H       
  37 H37            6.0670     5.6983    -1.1049 H       
  38 H38            3.7322     5.8466     1.8487 H       
  39 H39            2.5321     4.7548     1.1164 H       
  40 H40            3.8555     2.8578     1.4485 H       
  41 H41            5.3703     3.7922     1.4721 H       
  42 H42            4.7378     4.7623     3.6646 H       
  43 H43            3.2230     3.8279     3.6411 H       
  44 H44            4.7872     2.9847     3.7429 H       
  45 H45            7.4140     7.6551     1.7302 H       
@<TRIPOS>BOND
   1    1    2 ar
   2    1    6 ar
   3    1   15 1
   4    2    3 ar
   5    2   24 1
   6    3    4 ar
   7    3   25 1
   8    4    5 ar
   9    4   14 1
  10    5    7 1
  11    5    6 ar
  12    6    9 1
  13    7    8 1
  14    7   26 1
  15    8   13 1
  16    8    9 1
  17    8   27 1
  18    9   10 1
  19    9   28 1
  20   10   11 1
  21   10   29 1
  22   10   30 1
  23   11   12 1
  24   11   31 1
  25   11   32 1
  26   12   13 1
  27   13   16 1
  28   13   17 1
  29   14   33 1
  30   14   34 1
  31   14   35 1
  32   15   23 3
  33   16   20 1
  34   16   36 1
  35   16   37 1
  36   17   18 1
  37   17   38 1
  38   17   39 1
  39   18   19 1
  40   18   40 1
  41   18   41 1
  42   19   42 1
  43   19   43 1
  44   19   44 1
  45   20   21 2
  46   20   22 1
  47   22   45 1

#	End of record

