#	Name: ASD01912847
#	Creating user name:	WinNT
#	Creation time:	15. 06. 2019 20:00

#	Modifying user name:	WinNT
#	Modification time:	15. 06. 2019 20:00

#	Program:	/corina/corina34_cracker 3.40 0067  02.08.2006

@<TRIPOS>MOLECULE
ASD01912847
  46   49    0    0    0
SMALL
NO_CHARGES


@<TRIPOS>ATOM
   1 C1            -0.0165     1.3669     0.0096 C.2     
   2 N2             0.0021    -0.0041     0.0020 N.pl3   
   3 C3            -1.2022    -0.6920     0.0091 C.2     
   4 C4            -2.3629    -0.0496     0.0230 C.2     
   5 N5            -2.4358     1.3308     0.0306 N.am    
   6 C6            -1.3019     2.0668     0.0310 C.2     
   7 C7             1.3015     1.7837    -0.0007 C.2     
   8 C8             2.0550     0.6111    -0.0142 C.2     
   9 N9             1.2243    -0.4045    -0.0118 N.2     
  10 O10           -1.3488     3.2837     0.0377 O.2     
  11 C11           -3.6798     1.9645     0.0448 C.ar    
  12 C12            3.5595     0.5249    -0.0290 C.3     
  13 O13            4.1121     1.8427    -0.0272 O.3     
  14 C14            5.4673     1.9435    -0.0396 C.ar    
  15 C15            6.0712     3.1925    -0.0386 C.ar    
  16 C16            7.4490     3.2922    -0.0512 C.ar    
  17 C17            8.2260     2.1486    -0.0648 C.ar    
  18 C18            7.6265     0.9027    -0.0663 C.ar    
  19 C19            6.2492     0.7975    -0.0475 C.ar    
  20 N20           -4.2316     2.3524    -1.0930 N.ar    
  21 C21           -4.3344     2.1786     1.2596 C.ar    
  22 C22           -5.5725     2.8105     1.2550 C.ar    
  23 C23           -6.1085     3.2040     0.0375 C.ar    
  24 C24           -5.4054     2.9540    -1.1249 C.ar    
  25 N25           -3.7537     1.7633     2.4619 N.3     
  26 C26           -3.5380     2.9028     3.3636 C.3     
  27 C27           -4.5682     0.7263     3.1095 C.3     
  28 H28           -1.1950    -1.7719     0.0028 H       
  29 H29           -3.2785    -0.6224     0.0280 H       
  30 H30            1.6685     2.7994     0.0009 H       
  31 H31            3.9013    -0.0136     0.8548 H       
  32 H32            3.8843    -0.0040    -0.9250 H       
  33 H33            5.4647     4.0860    -0.0283 H       
  34 H34            7.9196     4.2643    -0.0508 H       
  35 H35            9.3030     2.2287    -0.0747 H       
  36 H36            8.2356     0.0109    -0.0777 H       
  37 H37            5.7814    -0.1759    -0.0486 H       
  38 H38           -6.1046     2.9906     2.1774 H       
  39 H39           -7.0686     3.6972    -0.0015 H       
  40 H40           -5.8206     3.2598    -2.0739 H       
  41 H41           -4.4939     3.3783     3.5831 H       
  42 H42           -3.0854     2.5517     4.2910 H       
  43 H43           -2.8747     3.6238     2.8858 H       
  44 H44           -4.6538    -0.1349     2.4469 H       
  45 H45           -4.0937     0.4214     4.0422 H       
  46 H46           -5.5614     1.1231     3.3198 H       
@<TRIPOS>BOND
   1    1    2 1
   2    1    7 2
   3    1    6 1
   4    2    3 1
   5    2    9 1
   6    3    4 2
   7    3   28 1
   8    4    5 1
   9    4   29 1
  10    5    6 am
  11    5   11 1
  12    6   10 2
  13    7    8 1
  14    7   30 1
  15    8    9 2
  16    8   12 1
  17   11   20 ar
  18   11   21 ar
  19   12   13 1
  20   12   31 1
  21   12   32 1
  22   13   14 1
  23   14   15 ar
  24   14   19 ar
  25   15   16 ar
  26   15   33 1
  27   16   17 ar
  28   16   34 1
  29   17   18 ar
  30   17   35 1
  31   18   19 ar
  32   18   36 1
  33   19   37 1
  34   20   24 ar
  35   21   22 ar
  36   21   25 1
  37   22   23 ar
  38   22   38 1
  39   23   24 ar
  40   23   39 1
  41   24   40 1
  42   25   26 1
  43   25   27 1
  44   26   41 1
  45   26   42 1
  46   26   43 1
  47   27   44 1
  48   27   45 1
  49   27   46 1

#	End of record

