#	Name: ASD02198650
#	Creating user name:	WinNT
#	Creation time:	15. 06. 2019 20:19

#	Modifying user name:	WinNT
#	Modification time:	15. 06. 2019 20:19

#	Program:	/corina/corina34_cracker 3.40 0067  02.08.2006

@<TRIPOS>MOLECULE
ASD02198650
  53   57    0    0    0
SMALL
NO_CHARGES


@<TRIPOS>ATOM
   1 C1             0.0067     1.5062     0.1346 C.2     
   2 C2             0.0730     0.1661    -0.0933 C.2     
   3 N3            -1.0540    -0.5633    -0.2627 N.pl3   
   4 N4            -2.2316    -0.0590    -0.2218 N.2     
   5 C5            -2.4382     1.2242    -0.0091 C.2     
   6 C6            -1.2792     2.1042     0.1929 C.2     
   7 C7            -0.9274    -1.9371    -0.4945 C.ar    
   8 C8            -1.5145    -2.5102    -1.6182 C.ar    
   9 C9            -1.3892    -3.8677    -1.8469 C.ar    
  10 C10           -0.6781    -4.6591    -0.9553 C.ar    
  11 C11           -0.0912    -4.0863     0.1688 C.ar    
  12 C12           -0.2104    -2.7288     0.3945 C.ar    
  13 C13           -3.8110     1.7680     0.0310 C.2     
  14 N14           -4.3722     2.4814     1.0526 N.pl3   
  15 N15           -5.6840     2.8003     0.6800 N.2     
  16 C16           -5.9152     2.3070    -0.5105 C.2     
  17 C17           -4.7647     1.6567    -0.9569 C.2     
  18 C18           -3.7475     2.8309     2.2565 C.ar    
  19 C19           -3.9166     4.1043     2.7840 C.ar    
  20 C20           -3.2992     4.4459     3.9713 C.ar    
  21 C21           -2.5133     3.5215     4.6346 C.ar    
  22 C22           -2.3429     2.2526     4.1119 C.ar    
  23 C23           -2.9623     1.9030     2.9279 C.ar    
  24 O24           -1.4162     3.3023     0.3943 O.2     
  25 O25            1.1346     2.2466     0.3063 O.3     
  26 C26            2.3824     1.5537     0.2362 C.3     
  27 F27           -2.2074    -1.7401    -2.4855 F       
  28 N28           -0.5518    -6.0344    -1.1869 N.am    
  29 C29            0.5374    -6.6480    -1.9558 C.3     
  30 C30            0.0418    -8.0671    -2.3120 C.3     
  31 C31           -0.9742    -8.3400    -1.1787 C.3     
  32 C32           -1.4093    -6.9626    -0.7288 C.2     
  33 O33           -2.3929    -6.7292    -0.0586 O.2     
  34 F34            0.6004    -4.8571     1.0365 F       
  35 H35            1.0360    -0.3205    -0.1399 H       
  36 H36           -1.8449    -4.3127    -2.7191 H       
  37 H37            0.2452    -2.2843     1.2670 H       
  38 H38           -6.8421     2.3928    -1.0581 H       
  39 H39           -4.6455     1.1505    -1.9034 H       
  40 H40           -4.5300     4.8269     2.2663 H       
  41 H41           -3.4301     5.4362     4.3819 H       
  42 H42           -2.0313     3.7911     5.5627 H       
  43 H43           -1.7282     1.5330     4.6321 H       
  44 H44           -2.8289     0.9119     2.5202 H       
  45 H45            3.1989     2.2593     0.3896 H       
  46 H46            2.4156     0.7859     1.0091 H       
  47 H47            2.4845     1.0875    -0.7438 H       
  48 H48            0.7270    -6.0757    -2.8639 H       
  49 H49            1.4414    -6.7053    -1.3495 H       
  50 H50           -0.4481    -8.0763    -3.2857 H       
  51 H51            0.8612    -8.7853    -2.2826 H       
  52 H52           -1.8246    -8.9071    -1.5572 H       
  53 H53           -0.4951    -8.8719    -0.3568 H       
@<TRIPOS>BOND
   1    1    2 2
   2    1   25 1
   3    1    6 1
   4    2    3 1
   5    2   35 1
   6    3    4 1
   7    3    7 1
   8    4    5 2
   9    5    6 1
  10    5   13 1
  11    6   24 2
  12    7    8 ar
  13    7   12 ar
  14    8    9 ar
  15    8   27 1
  16    9   10 ar
  17    9   36 1
  18   10   11 ar
  19   10   28 1
  20   11   12 ar
  21   11   34 1
  22   12   37 1
  23   13   14 1
  24   13   17 2
  25   14   15 1
  26   14   18 1
  27   15   16 2
  28   16   17 1
  29   16   38 1
  30   17   39 1
  31   18   19 ar
  32   18   23 ar
  33   19   20 ar
  34   19   40 1
  35   20   21 ar
  36   20   41 1
  37   21   22 ar
  38   21   42 1
  39   22   23 ar
  40   22   43 1
  41   23   44 1
  42   25   26 1
  43   26   45 1
  44   26   46 1
  45   26   47 1
  46   28   29 1
  47   28   32 am
  48   29   30 1
  49   29   48 1
  50   29   49 1
  51   30   31 1
  52   30   50 1
  53   30   51 1
  54   31   32 1
  55   31   52 1
  56   31   53 1
  57   32   33 2

#	End of record

