#	Name: ASD08830165
#	Creating user name:	WinNT
#	Creation time:	15. 06. 2019 21:19

#	Modifying user name:	WinNT
#	Modification time:	15. 06. 2019 21:19

#	Program:	/corina/corina34_cracker 3.40 0067  02.08.2006

@<TRIPOS>MOLECULE
ASD08830165
  38   41    0    0    0
SMALL
NO_CHARGES


@<TRIPOS>ATOM
   1 C1            -0.0167     1.3838     0.0097 C.ar    
   2 C2             0.0021    -0.0041     0.0020 C.ar    
   3 C3             2.4362     0.0701    -0.0209 C.ar    
   4 C4             2.3888     1.4727    -0.0125 C.ar    
   5 C5             1.2301    -0.6782    -0.0133 C.ar    
   6 C6             1.1849     2.1263     0.0022 C.ar    
   7 C7             1.2885    -2.0836    -0.0209 C.ar    
   8 C8             2.4981    -2.7074    -0.0354 C.ar    
   9 C9             3.6826    -1.9732    -0.0424 C.ar    
  10 C10            3.6653    -0.6120    -0.0349 C.ar    
  11 O11            0.9291     3.4583     0.0128 O.3     
  12 C12           -0.4773     3.7018     0.0271 C.3     
  13 C13           -1.1378     2.3401     0.0195 C.2     
  14 O14           -2.3250     2.0915     0.0271 O.2     
  15 C15           -0.8654     4.4732     1.2901 C.3     
  16 N16           -0.2769     5.8183     1.2425 N.3     
  17 C17           -0.8162     6.6675     2.3146 C.3     
  18 C18           -0.1341     8.0372     2.2652 C.3     
  19 O19           -0.3255     8.6132     0.9702 O.3     
  20 C20            0.1885     7.8126    -0.0976 C.3     
  21 C21           -0.4904     6.4406    -0.0722 C.3     
  22 H22           -0.9236    -0.5604     0.0082 H       
  23 H23            3.3075     2.0405    -0.0182 H       
  24 H24            0.3782    -2.6647    -0.0150 H       
  25 H25            2.5405    -3.7865    -0.0413 H       
  26 H26            4.6295    -2.4925    -0.0535 H       
  27 H27            4.5924    -0.0582    -0.0405 H       
  28 H28           -0.7701     4.2624    -0.8606 H       
  29 H29           -1.9510     4.5534     1.3476 H       
  30 H30           -0.4931     3.9445     2.1676 H       
  31 H31           -1.8903     6.7906     2.1759 H       
  32 H32           -0.6245     6.2001     3.2804 H       
  33 H33           -0.5712     8.6890     3.0217 H       
  34 H34            0.9324     7.9198     2.4573 H       
  35 H35           -0.0154     8.3020    -1.0500 H       
  36 H36            1.2644     7.6887     0.0257 H       
  37 H37           -0.0609     5.8076    -0.8486 H       
  38 H38           -1.5593     6.5601    -0.2490 H       
@<TRIPOS>BOND
   1    1    2 ar
   2    1    6 ar
   3    1   13 1
   4    2    5 ar
   5    2   22 1
   6    3    4 ar
   7    3    5 ar
   8    3   10 ar
   9    4    6 ar
  10    4   23 1
  11    5    7 ar
  12    6   11 1
  13    7    8 ar
  14    7   24 1
  15    8    9 ar
  16    8   25 1
  17    9   10 ar
  18    9   26 1
  19   10   27 1
  20   11   12 1
  21   12   13 1
  22   12   15 1
  23   12   28 1
  24   13   14 2
  25   15   16 1
  26   15   29 1
  27   15   30 1
  28   16   17 1
  29   16   21 1
  30   17   18 1
  31   17   31 1
  32   17   32 1
  33   18   19 1
  34   18   33 1
  35   18   34 1
  36   19   20 1
  37   20   21 1
  38   20   35 1
  39   20   36 1
  40   21   37 1
  41   21   38 1

#	End of record

