#	Name: ASD01040017
#	Creating user name:	WinNT
#	Creation time:	15. 06. 2019 18:58

#	Modifying user name:	WinNT
#	Modification time:	15. 06. 2019 18:58

#	Program:	/corina/corina34_cracker 3.40 0067  02.08.2006

@<TRIPOS>MOLECULE
ASD01040017
  39   41    0    0    0
SMALL
NO_CHARGES


@<TRIPOS>ATOM
   1 N1            -0.2276    -0.9844    -0.2197 N.1     
   2 C2            -0.0925     0.1417    -0.1546 C.1     
   3 C3             0.0777     1.5611    -0.0725 C.2     
   4 C4             1.3466     2.0998     0.0704 C.2     
   5 C5             1.5356     3.5624     0.0335 C.ar    
   6 C6             1.9425     4.2460     1.1832 C.ar    
   7 C7             2.1181     5.6115     1.1439 C.ar    
   8 C8             1.8909     6.3098    -0.0360 C.ar    
   9 O9             2.0649     7.6561    -0.0700 O.3     
  10 C10            1.4867     5.6344    -1.1813 C.ar    
  11 C11            1.3138     4.2683    -1.1528 C.ar    
  12 C12            2.5084     1.2105     0.2594 C.ar    
  13 C13            2.8943     0.3348    -0.7600 C.ar    
  14 C14            3.9799    -0.4933    -0.5793 C.ar    
  15 C15            4.6912    -0.4597     0.6141 C.ar    
  16 O16            5.7573    -1.2819     0.7901 O.3     
  17 C17            4.3113     0.4092     1.6301 C.ar    
  18 C18            3.2305     1.2450     1.4561 C.ar    
  19 C19           -1.1002     2.4528    -0.1462 C.ar    
  20 C20           -1.8410     2.5393    -1.3261 C.ar    
  21 C21           -2.9388     3.3724    -1.3881 C.ar    
  22 C22           -3.3060     4.1213    -0.2841 C.ar    
  23 C23           -2.5759     4.0402     0.8885 C.ar    
  24 C24           -1.4792     3.2070     0.9655 C.ar    
  25 H25            2.1186     3.7043     2.1007 H       
  26 H26            2.4325     6.1405     2.0315 H       
  27 H27            2.9602     7.9310    -0.3106 H       
  28 H28            1.3114     6.1811    -2.0961 H       
  29 H29            1.0033     3.7437    -2.0443 H       
  30 H30            2.3417     0.3075    -1.6875 H       
  31 H31            4.2787    -1.1701    -1.3662 H       
  32 H32            5.5325    -2.1411     1.1726 H       
  33 H33            4.8668     0.4317     2.5561 H       
  34 H34            2.9360     1.9198     2.2462 H       
  35 H35           -1.5552     1.9555    -2.1887 H       
  36 H36           -3.5126     3.4406    -2.3005 H       
  37 H37           -4.1660     4.7723    -0.3379 H       
  38 H38           -2.8676     4.6276     1.7466 H       
  39 H39           -0.9101     3.1445     1.8814 H       
@<TRIPOS>BOND
   1    1    2 3
   2    2    3 1
   3    3    4 2
   4    3   19 1
   5    4    5 1
   6    4   12 1
   7    5    6 ar
   8    5   11 ar
   9    6    7 ar
  10    6   25 1
  11    7   26 1
  12    7    8 ar
  13    8    9 1
  14    8   10 ar
  15    9   27 1
  16   10   28 1
  17   10   11 ar
  18   11   29 1
  19   12   13 ar
  20   12   18 ar
  21   13   30 1
  22   13   14 ar
  23   14   31 1
  24   14   15 ar
  25   15   17 ar
  26   15   16 1
  27   16   32 1
  28   17   18 ar
  29   17   33 1
  30   18   34 1
  31   19   20 ar
  32   19   24 ar
  33   20   35 1
  34   20   21 ar
  35   21   36 1
  36   21   22 ar
  37   22   23 ar
  38   22   37 1
  39   23   24 ar
  40   23   38 1
  41   24   39 1

#	End of record

