#	Name: ASD01870087
#	Creating user name:	WinNT
#	Creation time:	15. 06. 2019 19:38

#	Modifying user name:	WinNT
#	Modification time:	15. 06. 2019 19:38

#	Program:	/corina/corina34_cracker 3.40 0067  02.08.2006

@<TRIPOS>MOLECULE
ASD01870087
  48   52    0    0    0
SMALL
NO_CHARGES


@<TRIPOS>ATOM
   1 C1            -0.0187     1.5304     0.0105 C.3     
   2 C2             0.0021    -0.0041     0.0020 C.3     
   3 O3             0.6794    -0.4368    -1.1826 O.3     
   4 C4             1.8517     0.1850    -1.4788 C.ar    
   5 C5             2.1788     1.4047    -0.8894 C.ar    
   6 O6             1.3349     1.9967     0.0000 O.3     
   7 C7             2.7266    -0.4103    -2.3816 C.ar    
   8 C8             3.9180     0.2006    -2.7000 C.ar    
   9 C9             4.2531     1.4274    -2.1131 C.ar    
  10 C10            3.3724     2.0260    -1.2039 C.ar    
  11 C11            5.5223     2.0832    -2.4501 C.2     
  12 C12            6.3728     1.5016    -3.3310 C.2     
  13 C13            7.5901     2.1305    -3.6543 C.2     
  14 O14            7.8783     3.1945    -3.1439 O.2     
  15 C15            8.5356     1.4839    -4.6336 C.3     
  16 C16            9.7733     2.3666    -4.8063 C.3     
  17 C17           10.7332     1.7101    -5.8005 C.3     
  18 C18           11.1552     0.3378    -5.2717 C.3     
  19 C19            9.9175    -0.5449    -5.0990 C.3     
  20 C20            8.9576     0.1116    -4.1048 C.3     
  21 C21            7.8358     1.3170    -5.9839 C.3     
  22 C22            8.7957     0.6605    -6.9781 C.3     
  23 C23           10.0334     1.5432    -7.1508 C.3     
  24 C24            9.2177    -0.7118    -6.4493 C.3     
  25 H25           -0.5403     1.8959    -0.8741 H       
  26 H26           -0.5233     1.8864     0.9087 H       
  27 H27            0.5312    -0.3693     0.8822 H       
  28 H28           -1.0190    -0.3855     0.0017 H       
  29 H29            2.4695    -1.3561    -2.8351 H       
  30 H30            4.5940    -0.2657    -3.4014 H       
  31 H31            3.6259     2.9719    -0.7485 H       
  32 H32            5.7786     3.0292    -1.9963 H       
  33 H33            6.1166     0.5556    -3.7848 H       
  34 H34            9.4726     3.3443    -5.1830 H       
  35 H35           10.2719     2.4855    -3.8443 H       
  36 H36           11.6150     2.3390    -5.9235 H       
  37 H37           11.8391    -0.1299    -5.9800 H       
  38 H38           11.6538     0.4567    -4.3098 H       
  39 H39           10.2182    -1.5225    -4.7223 H       
  40 H40            9.4562     0.2305    -3.1428 H       
  41 H41            8.0759    -0.5172    -3.9818 H       
  42 H42            6.9540     0.6882    -5.8608 H       
  43 H43            7.5351     2.2947    -6.3606 H       
  44 H44            8.2971     0.5416    -7.9401 H       
  45 H45            9.7327     2.5209    -7.5275 H       
  46 H46           10.7173     1.0755    -7.8591 H       
  47 H47            9.9016    -1.1795    -7.1576 H       
  48 H48            8.3360    -1.3406    -6.3263 H       
@<TRIPOS>BOND
   1    1    2 1
   2    1    6 1
   3    1   25 1
   4    1   26 1
   5    2    3 1
   6    2   27 1
   7    2   28 1
   8    3    4 1
   9    4    5 ar
  10    4    7 ar
  11    5    6 1
  12    5   10 ar
  13    7    8 ar
  14    7   29 1
  15    8    9 ar
  16    8   30 1
  17    9   10 ar
  18    9   11 1
  19   10   31 1
  20   11   12 2
  21   11   32 1
  22   12   13 1
  23   12   33 1
  24   13   14 2
  25   13   15 1
  26   15   16 1
  27   15   21 1
  28   15   20 1
  29   16   17 1
  30   16   34 1
  31   16   35 1
  32   17   18 1
  33   17   23 1
  34   17   36 1
  35   18   19 1
  36   18   37 1
  37   18   38 1
  38   19   20 1
  39   19   24 1
  40   19   39 1
  41   20   40 1
  42   20   41 1
  43   21   22 1
  44   21   42 1
  45   21   43 1
  46   22   23 1
  47   22   24 1
  48   22   44 1
  49   23   45 1
  50   23   46 1
  51   24   47 1
  52   24   48 1

#	End of record

