#	Name: ASD01910382
#	Creating user name:	WinNT
#	Creation time:	15. 06. 2019 19:55

#	Modifying user name:	WinNT
#	Modification time:	15. 06. 2019 19:55

#	Program:	/corina/corina34_cracker 3.40 0067  02.08.2006

@<TRIPOS>MOLECULE
ASD01910382
  42   44    0    0    0
SMALL
NO_CHARGES


@<TRIPOS>ATOM
   1 C1             0.0448     1.4280    -0.1284 C.ar    
   2 C2             0.0535    -0.0039    -0.1124 C.1     
   3 C3             0.0607    -1.1778    -0.0992 C.1     
   4 C4             0.0694    -2.6097    -0.0832 C.ar    
   5 C5            -1.0084    -3.3101     0.4699 C.ar    
   6 C6            -0.9997    -4.6757     0.4844 C.ar    
   7 C7             0.0860    -5.3739    -0.0527 C.ar    
   8 C8             1.1633    -4.6747    -0.6050 C.ar    
   9 C9             1.1531    -3.3092    -0.6258 C.ar    
  10 C10            0.0949    -6.8500    -0.0362 C.2     
  11 O11           -0.8644    -7.4685    -0.4551 O.2     
  12 N12            1.1665    -7.5121     0.4433 N.am    
  13 C13            1.1197     2.1307    -0.6801 C.ar    
  14 C14            1.1043     3.5097    -0.6919 C.ar    
  15 C15            0.0283     4.1976    -0.1590 C.ar    
  16 C16           -1.0396     3.5087     0.3890 C.ar    
  17 C17           -1.0412     2.1297     0.4023 C.ar    
  18 C18            2.3656    -6.7817     0.8761 C.3     
  19 C19            2.7107    -7.2045     2.3075 C.3     
  20 C20            2.8470    -8.7277     2.3665 C.3     
  21 C21            1.5160    -9.3760     1.9789 C.3     
  22 C22            1.1553    -8.9775     0.5490 C.3     
  23 O23            3.9447    -6.5997     2.6991 O.3     
  24 H24           -1.8468    -2.7708     0.8855 H       
  25 H25           -1.8315    -5.2164     0.9113 H       
  26 H26            2.0020    -5.2147    -1.0191 H       
  27 H27            1.9854    -2.7693    -1.0526 H       
  28 H28            1.9605     1.5951    -1.0957 H       
  29 H29            1.9341     4.0540    -1.1179 H       
  30 H30            0.0220     5.2775    -0.1704 H       
  31 H31           -1.8757     4.0524     0.8034 H       
  32 H32           -1.8752     1.5934     0.8302 H       
  33 H33            3.1978    -7.0206     0.2139 H       
  34 H34            2.1703    -5.7097     0.8487 H       
  35 H35            1.9174    -6.8838     2.9828 H       
  36 H36            3.6235    -9.0499     1.6727 H       
  37 H37            3.1167    -9.0292     3.3786 H       
  38 H38            1.6070   -10.4603     2.0437 H       
  39 H39            0.7340    -9.0349     2.6572 H       
  40 H40            0.1627    -9.3552     0.3037 H       
  41 H41            1.8881    -9.3939    -0.1423 H       
  42 H42            3.9315    -5.6329     2.6827 H       
@<TRIPOS>BOND
   1    1    2 1
   2    1   13 ar
   3    1   17 ar
   4    2    3 3
   5    3    4 1
   6    4    5 ar
   7    4    9 ar
   8    5    6 ar
   9    5   24 1
  10    6    7 ar
  11    6   25 1
  12    7    8 ar
  13    7   10 1
  14    8    9 ar
  15    8   26 1
  16    9   27 1
  17   10   11 2
  18   10   12 am
  19   12   18 1
  20   12   22 1
  21   13   14 ar
  22   13   28 1
  23   14   15 ar
  24   14   29 1
  25   15   16 ar
  26   15   30 1
  27   16   17 ar
  28   16   31 1
  29   17   32 1
  30   18   19 1
  31   18   33 1
  32   18   34 1
  33   19   20 1
  34   19   23 1
  35   19   35 1
  36   20   21 1
  37   20   36 1
  38   20   37 1
  39   21   22 1
  40   21   38 1
  41   21   39 1
  42   22   40 1
  43   22   41 1
  44   23   42 1

#	End of record

