#	Name: ASD07931869
#	Creating user name:	WinNT
#	Creation time:	15. 06. 2019 21:13

#	Modifying user name:	WinNT
#	Modification time:	15. 06. 2019 21:13

#	Program:	/corina/corina34_cracker 3.40 0067  02.08.2006

@<TRIPOS>MOLECULE
ASD07931869
  25   26    0    0    0
SMALL
NO_CHARGES


@<TRIPOS>ATOM
   1 C1            -0.2488     1.4567    -0.3030 C.2     
   2 C2             0.0022    -0.0050     0.0015 C.3     
   3 C3             1.2595     0.4416     0.7640 C.3     
   4 C4             1.2429     1.6711    -0.1578 C.3     
   5 O5            -1.2094     2.1438    -0.5545 O.2     
   6 O6            -0.9949    -0.5935     0.8391 O.3     
   7 C7            -2.0807    -1.1296     0.2225 C.ar    
   8 C8            -3.0363    -1.8091     0.9644 C.ar    
   9 C9            -4.1390    -2.3532     0.3352 C.ar    
  10 C10           -4.2909    -2.2214    -1.0330 C.ar    
  11 C11           -3.3401    -1.5452    -1.7744 C.ar    
  12 C12           -2.2386    -0.9935    -1.1489 C.ar    
  13 C13           -2.8708    -1.9539     2.4552 C.3     
  14 F14           -3.9525    -2.6716     2.9769 F       
  15 F15           -1.6818    -2.6386     2.7282 F       
  16 F16           -2.8247    -0.6860     3.0446 F       
  17 H17            0.2189    -0.6034    -0.8834 H       
  18 H18            1.0784     0.6754     1.8131 H       
  19 H19            2.1203    -0.2099     0.6136 H       
  20 H20            1.7961     1.5273    -1.0859 H       
  21 H21            1.5022     2.6000     0.3501 H       
  22 H22           -4.8830    -2.8822     0.9122 H       
  23 H23           -5.1537    -2.6478    -1.5231 H       
  24 H24           -3.4608    -1.4440    -2.8429 H       
  25 H25           -1.4985    -0.4612    -1.7279 H       
@<TRIPOS>BOND
   1    1    2 1
   2    1    4 1
   3    1    5 2
   4    2    3 1
   5    2    6 1
   6    2   17 1
   7    3    4 1
   8    3   18 1
   9    3   19 1
  10    4   20 1
  11    4   21 1
  12    6    7 1
  13    7    8 ar
  14    7   12 ar
  15    8    9 ar
  16    8   13 1
  17    9   10 ar
  18    9   22 1
  19   10   11 ar
  20   10   23 1
  21   11   12 ar
  22   11   24 1
  23   12   25 1
  24   13   14 1
  25   13   15 1
  26   13   16 1

#	End of record

