#	Name: ASD03950031
#	Creating user name:	WinNT
#	Creation time:	15. 06. 2019 20:48

#	Modifying user name:	WinNT
#	Modification time:	15. 06. 2019 20:48

#	Program:	/corina/corina34_cracker 3.40 0067  02.08.2006

@<TRIPOS>MOLECULE
ASD03950031
  53   56    0    0    0
SMALL
NO_CHARGES


@<TRIPOS>ATOM
   1 N1            -0.0169     1.3942     0.0097 N.pl3   
   2 N2             0.0021    -0.0041     0.0020 N.2     
   3 C3             1.2311    -0.4341    -0.0120 C.2     
   4 C4             2.1093     0.7334    -0.0141 C.ar    
   5 C5             3.4967     0.8990    -0.0268 C.ar    
   6 C6             4.0411     2.1756    -0.0256 C.ar    
   7 C7             3.2112     3.2979    -0.0112 C.ar    
   8 C8             1.8298     3.1501     0.0016 C.ar    
   9 C9             1.2663     1.8606    -0.0000 C.ar    
  10 C10            0.9576     4.3398     0.0172 C.2     
  11 O11           -0.2510     4.2074     0.0284 O.2     
  12 N12            1.5004     5.5734     0.0192 N.am    
  13 N13            1.2107    -4.6672    -0.0344 N.am    
  14 C14            1.6135    -4.0361     1.2298 C.3     
  15 C15            1.1379    -2.5799     1.2275 C.3     
  16 C16            1.6687    -1.8761    -0.0235 C.3     
  17 C17            1.1162    -2.5666    -1.2725 C.3     
  18 C18            1.5916    -4.0227    -1.2986 C.3     
  19 S19            0.3495    -6.0817    -0.0344 S.o2    
  20 O20            0.6708    -6.6876    -1.2790 O.2     
  21 O21            0.6975    -6.7039     1.1948 O.2     
  22 C22           -1.3862    -5.5549    -0.0123 C.3     
  23 C23           -2.2932    -6.7870    -0.0106 C.3     
  24 C24            5.5152     2.3486    -0.0391 C.ar    
  25 C25            6.0684     3.6270    -0.0380 C.ar    
  26 C26            7.4421     3.7836    -0.0501 C.ar    
  27 C27            8.2678     2.6717    -0.0639 C.ar    
  28 C28            7.7219     1.3988    -0.0656 C.ar    
  29 C29            6.3494     1.2330    -0.0472 C.ar    
  30 F30            8.5318     0.3176    -0.0800 F       
  31 F31            7.9797     5.0230    -0.0490 F       
  32 H32           -0.8151     1.9454     0.0166 H       
  33 H33            4.1444     0.0349    -0.0373 H       
  34 H34            3.6454     4.2867    -0.0097 H       
  35 H35            2.4646     5.6790     0.0103 H       
  36 H36            0.9269     6.3556     0.0295 H       
  37 H37            1.1581    -4.5680     2.0651 H       
  38 H38            2.6991    -4.0658     1.3233 H       
  39 H39            0.0483    -2.5531     1.2253 H       
  40 H40            1.5130    -2.0733     2.1168 H       
  41 H41            2.7576    -1.9251    -0.0333 H       
  42 H42            0.0268    -2.5399    -1.2511 H       
  43 H43            1.4759    -2.0505    -2.1627 H       
  44 H44            2.6754    -4.0513    -1.4112 H       
  45 H45            1.1217    -4.5457    -2.1315 H       
  46 H46           -1.5750    -4.9635     0.8837 H       
  47 H47           -1.5942    -4.9518    -0.8961 H       
  48 H48           -2.0852    -7.3901     0.8732 H       
  49 H49           -3.3361    -6.4705     0.0027 H       
  50 H50           -2.1044    -7.3784    -0.9066 H       
  51 H51            5.4253     4.4946    -0.0279 H       
  52 H52            9.3404     2.7976    -0.0738 H       
  53 H53            5.9246     0.2401    -0.0441 H       
@<TRIPOS>BOND
   1    1    2 1
   2    1    9 1
   3    1   32 1
   4    2    3 2
   5    3    4 1
   6    3   16 1
   7    4    5 ar
   8    4    9 ar
   9    5    6 ar
  10    5   33 1
  11    6    7 ar
  12    6   24 1
  13    7    8 ar
  14    7   34 1
  15    8    9 ar
  16    8   10 1
  17   10   11 2
  18   10   12 am
  19   12   35 1
  20   12   36 1
  21   13   14 1
  22   13   18 1
  23   13   19 am
  24   14   15 1
  25   14   37 1
  26   14   38 1
  27   15   16 1
  28   15   39 1
  29   15   40 1
  30   16   17 1
  31   16   41 1
  32   17   18 1
  33   17   42 1
  34   17   43 1
  35   18   44 1
  36   18   45 1
  37   19   20 2
  38   19   21 2
  39   19   22 1
  40   22   23 1
  41   22   46 1
  42   22   47 1
  43   23   48 1
  44   23   49 1
  45   23   50 1
  46   24   25 ar
  47   24   29 ar
  48   25   26 ar
  49   25   51 1
  50   26   27 ar
  51   26   31 1
  52   27   28 ar
  53   27   52 1
  54   28   29 ar
  55   28   30 1
  56   29   53 1

#	End of record

