#	Name: ASD03090553
#	Creating user name:	WinNT
#	Creation time:	15. 06. 2019 20:29

#	Modifying user name:	WinNT
#	Modification time:	15. 06. 2019 20:29

#	Program:	/corina/corina34_cracker 3.40 0067  02.08.2006

@<TRIPOS>MOLECULE
ASD03090553
  37   39    0    0    0
SMALL
NO_CHARGES


@<TRIPOS>ATOM
   1 C1            -0.0186     1.5024     0.0153 C.2     
   2 C2             0.0014    -0.0045     0.0121 C.3     
   3 O3             1.0237     2.1227     0.0090 O.2     
   4 N4            -1.1946     2.1607     0.0195 N.am    
   5 C5            -1.2153     3.5552     0.1328 C.ar    
   6 C6            -2.1826     4.2918    -0.5355 C.ar    
   7 C7            -2.2000     5.6752    -0.4200 C.ar    
   8 C8            -1.2485     6.3175     0.3644 C.ar    
   9 C9            -0.2872     5.5806     1.0280 C.ar    
  10 C10           -0.2708     4.2030     0.9191 C.ar    
  11 S11           -3.4259     6.6157    -1.2669 S.3     
  12 C12           -3.0241     8.3225    -0.8019 C.3     
  13 F13           -1.7257     8.6275    -1.2241 F       
  14 F14           -3.9301     9.1973    -1.4111 F       
  15 F15           -3.1068     8.4589     0.5879 F       
  16 N16            5.3310    -1.8124     0.2432 N.pl3   
  17 C17            5.5006    -1.8690     1.5998 C.2     
  18 C18            4.3727    -1.4854     2.2183 C.2     
  19 C19            3.4014    -1.1561     1.1723 C.ar    
  20 C20            2.0791    -0.7077     1.1821 C.ar    
  21 C21            1.4287    -0.4879     0.0008 C.ar    
  22 C22            2.0720    -0.7069    -1.2098 C.ar    
  23 C23            3.3760    -1.1495    -1.2425 C.ar    
  24 C24            4.0576    -1.3799    -0.0517 C.ar    
  25 H25           -0.5011    -0.3764     0.9050 H       
  26 H26           -0.5140    -0.3728    -0.8749 H       
  27 H27           -2.0266     1.6678    -0.0561 H       
  28 H28           -2.9202     3.7902    -1.1443 H       
  29 H29           -1.2609     7.3937     0.4546 H       
  30 H30            0.4508     6.0818     1.6367 H       
  31 H31            0.4798     3.6295     1.4426 H       
  32 H32            6.0085    -2.0391    -0.4130 H       
  33 H33            6.4074    -2.1771     2.0990 H       
  34 H34            4.2118    -1.4300     3.2849 H       
  35 H35            1.5719    -0.5361     2.1200 H       
  36 H36            1.5447    -0.5286    -2.1353 H       
  37 H37            3.8677    -1.3172    -2.1893 H       
@<TRIPOS>BOND
   1    1    2 1
   2    1    3 2
   3    1    4 am
   4    2   21 1
   5    2   25 1
   6    2   26 1
   7    4    5 1
   8    4   27 1
   9    5    6 ar
  10    5   10 ar
  11    6    7 ar
  12    6   28 1
  13    7    8 ar
  14    7   11 1
  15    8    9 ar
  16    8   29 1
  17    9   10 ar
  18    9   30 1
  19   10   31 1
  20   11   12 1
  21   12   13 1
  22   12   14 1
  23   12   15 1
  24   16   17 1
  25   16   24 1
  26   16   32 1
  27   17   18 2
  28   17   33 1
  29   18   19 1
  30   18   34 1
  31   19   20 ar
  32   19   24 ar
  33   20   21 ar
  34   20   35 1
  35   21   22 ar
  36   22   23 ar
  37   22   36 1
  38   23   24 ar
  39   23   37 1

#	End of record

