#	Name: ASD00431051
#	Creating user name:	WinNT
#	Creation time:	15. 06. 2019 18:35

#	Modifying user name:	WinNT
#	Modification time:	15. 06. 2019 18:35

#	Program:	/corina/corina34_cracker 3.40 0067  02.08.2006

@<TRIPOS>MOLECULE
ASD00431051
  81   84    0    0    0
SMALL
NO_CHARGES


@<TRIPOS>ATOM
   1 C1            -0.0448     1.5947     0.0210 C.2     
   2 C2            -0.0020     0.0785    -0.0490 C.3     
   3 C3            -1.4313    -0.3401     0.3664 C.3     
   4 C4            -2.2224     0.9449     0.2919 C.2     
   5 N5            -1.3967     1.9594     0.0182 N.am    
   6 O6            -3.4205     1.0407     0.4548 O.2     
   7 C7            -3.3187    -1.8787    -0.1018 C.2     
   8 N8            -4.0033    -2.8027    -0.8047 N.am    
   9 O9            -3.7694    -1.4533     0.9407 O.2     
  10 C10           -1.8609     3.3211    -0.2581 C.3     
  11 C11           -5.2917    -3.2934    -0.3093 C.3     
  12 C12           -5.8453    -4.3117    -1.2724 C.ar    
  13 C13           -5.5363    -5.6500    -1.1143 C.ar    
  14 C14            0.9322     2.4257     0.0284 C.2     
  15 C15            2.4097     2.2904     0.0915 C.3     
  16 C16            2.8237     1.2325     1.0961 C.3     
  17 C17            2.4020    -0.1522     0.6849 C.3     
  18 C18            0.9871    -0.4910     0.9538 C.3     
  19 C19           -1.9933    -1.3739    -0.6114 C.3     
  20 C20           -6.6656    -3.9063    -2.3087 C.ar    
  21 C21           -7.1755    -4.8414    -3.1951 C.ar    
  22 C22           -6.8599    -6.1877    -3.0393 C.ar    
  23 C23           -6.0417    -6.5880    -1.9950 C.ar    
  24 C24           -1.9417     4.1080     1.0516 C.3     
  25 C25           -2.4192     5.5088     0.7673 C.2     
  26 C26           -1.3985     6.5316     0.3625 C.3     
  27 C27           -3.6851     5.7535     0.8826 C.2     
  28 C28           -4.3095     7.0931     0.6226 C.3     
  29 C29           -3.2371     8.1847     0.6291 C.3     
  30 C30           -2.0868     7.7362    -0.2831 C.3     
  31 C31            0.3159    -0.3899    -1.4456 C.2     
  32 O32            0.3705     0.4069    -2.3523 O.2     
  33 O33            0.5384    -1.6922    -1.6824 O.3     
  34 C34            1.0609    -3.5834    -3.1248 C.3     
  35 C35            0.8391    -2.0714    -3.0514 C.3     
  36 O36           -7.3578    -7.1092    -3.9066 O.3     
  37 C37           -6.9917    -8.4727    -3.6854 C.3     
  38 O38           -7.9829    -4.4443    -4.2148 O.3     
  39 C39           -8.2644    -3.0468    -4.3129 C.3     
  40 H40           -1.4344    -0.7327     1.3832 H       
  41 H41           -3.6428    -3.1429    -1.6385 H       
  42 H42           -1.1623     3.8129    -0.9350 H       
  43 H43           -2.8475     3.2820    -0.7199 H       
  44 H44           -5.1531    -3.7554     0.6681 H       
  45 H45           -5.9885    -2.4598    -0.2216 H       
  46 H46           -4.8984    -5.9632    -0.3010 H       
  47 H47            0.6075     3.4545    -0.0231 H       
  48 H48            2.7851     2.0135    -0.8936 H       
  49 H49            2.8436     3.2473     0.3816 H       
  50 H50            3.9083     1.2533     1.2028 H       
  51 H51            2.3724     1.4664     2.0603 H       
  52 H52            2.5761    -0.2600    -0.3857 H       
  53 H53            3.0343    -0.8719     1.2048 H       
  54 H54            0.7191    -0.1092     1.9390 H       
  55 H55            0.8852    -1.5762     0.9649 H       
  56 H56           -2.1319    -0.9119    -1.5888 H       
  57 H57           -1.2965    -2.2075    -0.6991 H       
  58 H58           -6.9093    -2.8609    -2.4272 H       
  59 H59           -5.7949    -7.6322    -1.8721 H       
  60 H60           -2.6403     3.6162     1.7284 H       
  61 H61           -0.9551     4.1471     1.5133 H       
  62 H62           -0.8469     6.8600     1.2434 H       
  63 H63           -0.7046     6.0869    -0.3508 H       
  64 H64           -4.3321     4.9432     1.1842 H       
  65 H65           -4.8044     7.0787    -0.3485 H       
  66 H66           -5.0457     7.3052     1.3979 H       
  67 H67           -3.6600     9.1161     0.2527 H       
  68 H68           -2.8685     8.3301     1.6446 H       
  69 H69           -1.3695     8.5493    -0.3950 H       
  70 H70           -2.4817     7.4550    -1.2594 H       
  71 H71            1.2866    -3.8681    -4.1525 H       
  72 H72            1.8948    -3.8601    -2.4797 H       
  73 H73            0.1593    -4.0994    -2.7946 H       
  74 H74            0.0052    -1.7947    -3.6965 H       
  75 H75            1.7407    -1.5555    -3.3817 H       
  76 H76           -7.3330    -8.7850    -2.6985 H       
  77 H77           -7.4551    -9.1013    -4.4459 H       
  78 H78           -5.9078    -8.5718    -3.7432 H       
  79 H79           -8.7577    -2.7106    -3.4009 H       
  80 H80           -7.3327    -2.4969    -4.4459 H       
  81 H81           -8.9177    -2.8668    -5.1667 H       
@<TRIPOS>BOND
   1    1    2 1
   2    1   14 2
   3    1    5 1
   4    2   31 1
   5    2    3 1
   6    2   18 1
   7    3    4 1
   8    3   19 1
   9    3   40 1
  10    4    5 am
  11    4    6 2
  12    5   10 1
  13    7    8 am
  14    7    9 2
  15    7   19 1
  16    8   11 1
  17    8   41 1
  18   10   24 1
  19   10   42 1
  20   10   43 1
  21   11   12 1
  22   11   44 1
  23   11   45 1
  24   12   13 ar
  25   12   20 ar
  26   13   23 ar
  27   13   46 1
  28   14   15 1
  29   14   47 1
  30   15   16 1
  31   15   48 1
  32   15   49 1
  33   16   17 1
  34   16   50 1
  35   16   51 1
  36   17   18 1
  37   17   52 1
  38   17   53 1
  39   18   54 1
  40   18   55 1
  41   19   56 1
  42   19   57 1
  43   20   21 ar
  44   20   58 1
  45   21   22 ar
  46   21   38 1
  47   22   23 ar
  48   22   36 1
  49   23   59 1
  50   24   25 1
  51   24   60 1
  52   24   61 1
  53   25   26 1
  54   25   27 2
  55   26   30 1
  56   26   62 1
  57   26   63 1
  58   27   28 1
  59   27   64 1
  60   28   29 1
  61   28   65 1
  62   28   66 1
  63   29   30 1
  64   29   67 1
  65   29   68 1
  66   30   69 1
  67   30   70 1
  68   31   32 2
  69   31   33 1
  70   33   35 1
  71   34   35 1
  72   34   71 1
  73   34   72 1
  74   34   73 1
  75   35   74 1
  76   35   75 1
  77   36   37 1
  78   37   76 1
  79   37   77 1
  80   37   78 1
  81   38   39 1
  82   39   79 1
  83   39   80 1
  84   39   81 1

#	End of record

