#	Name: ASD01913564
#	Creating user name:	WinNT
#	Creation time:	15. 06. 2019 20:01

#	Modifying user name:	WinNT
#	Modification time:	15. 06. 2019 20:01

#	Program:	/corina/corina34_cracker 3.40 0067  02.08.2006

@<TRIPOS>MOLECULE
ASD01913564
  35   37    0    0    0
SMALL
NO_CHARGES


@<TRIPOS>ATOM
   1 C1             0.5186     0.8673     2.0819 C.ar    
   2 C2             0.3501    -0.3334     1.4008 C.ar    
   3 C3             1.4211    -0.8539     0.6750 C.ar    
   4 C4             2.6208    -0.1433     0.6641 C.ar    
   5 C5             2.7095     1.0438     1.3667 C.ar    
   6 N6             1.6806     1.5099     2.0430 N.ar    
   7 C7            -0.6101     1.4381     2.8528 C.2     
   8 O8            -1.6771     0.8574     2.8881 O.2     
   9 N9            -0.4537     2.6014     3.5152 N.am    
  10 S10           -1.4538     4.5989     5.1219 S.3     
  11 C11           -1.5119     3.1366     4.2380 C.2     
  12 N12           -2.6879     2.6004     4.3402 N.2     
  13 C13           -3.5780     3.2470     5.0691 C.2     
  14 C14           -3.1332     4.3837     5.6086 C.2     
  15 N15            1.2957    -2.0535    -0.0209 N.pl3   
  16 C16           -0.0022    -3.7676     1.0889 C.ar    
  17 C17            0.1247    -2.8080     0.0922 C.ar    
  18 C18           -0.9327    -2.6088    -0.7923 C.ar    
  19 C19           -2.0728    -3.3808    -0.6394 C.ar    
  20 C20           -2.1237    -4.3159     0.3774 C.ar    
  21 N21           -1.1051    -4.4805     1.1988 N.ar    
  22 C22            2.3913    -2.5246    -0.8718 C.3     
  23 H23           -0.5951    -0.8548     1.4338 H       
  24 H24            3.4713    -0.5164     0.1130 H       
  25 H25            3.6369     1.5973     1.3608 H       
  26 H26            0.3979     3.0649     3.4870 H       
  27 H27           -4.5852     2.8859     5.2165 H       
  28 H28           -3.7030     5.0542     6.2349 H       
  29 H29            0.8128    -3.9340     1.7778 H       
  30 H30           -0.8655    -1.8705    -1.5777 H       
  31 H31           -2.9123    -3.2532    -1.3068 H       
  32 H32           -3.0102    -4.9203     0.5008 H       
  33 H33            3.0660    -3.1470    -0.2839 H       
  34 H34            1.9848    -3.1087    -1.6974 H       
  35 H35            2.9384    -1.6686    -1.2669 H       
@<TRIPOS>BOND
   1    1    2 ar
   2    1    6 ar
   3    1    7 1
   4    2    3 ar
   5    2   23 1
   6    3    4 ar
   7    3   15 1
   8    4    5 ar
   9    4   24 1
  10    5    6 ar
  11    5   25 1
  12    7    8 2
  13    7    9 am
  14    9   11 1
  15    9   26 1
  16   10   11 1
  17   10   14 1
  18   11   12 2
  19   12   13 1
  20   13   14 2
  21   13   27 1
  22   14   28 1
  23   15   17 1
  24   15   22 1
  25   16   17 ar
  26   16   21 ar
  27   16   29 1
  28   17   18 ar
  29   18   19 ar
  30   18   30 1
  31   19   20 ar
  32   19   31 1
  33   20   21 ar
  34   20   32 1
  35   22   33 1
  36   22   34 1
  37   22   35 1

#	End of record

