#	Name: ASD02030524
#	Creating user name:	WinNT
#	Creation time:	15. 06. 2019 20:15

#	Modifying user name:	WinNT
#	Modification time:	15. 06. 2019 20:15

#	Program:	/corina/corina34_cracker 3.40 0067  02.08.2006

@<TRIPOS>MOLECULE
ASD02030524
  62   66    0    0    0
SMALL
NO_CHARGES


@<TRIPOS>ATOM
   1 N1            -0.0957     1.6191    -0.2363 N.am    
   2 C2            -0.2104     0.1571    -0.3329 C.3     
   3 C3            -1.0450    -0.3483     0.8504 C.3     
   4 N4            -2.2731     0.4545     0.9358 N.am    
   5 C5            -2.1583     1.9165     1.0325 C.3     
   6 C6            -1.3236     2.4215    -0.1452 C.3     
   7 C7             1.1141     2.2130    -0.2256 C.2     
   8 C8             2.3410     1.3901    -0.1702 C.2     
   9 N9             3.5683     1.8399    -0.0206 N.2     
  10 N10            2.3988     0.0485    -0.2581 N.2     
  11 C11            3.6587    -0.2934    -0.1658 C.2     
  12 N12            4.3783     0.8378    -0.0175 N.pl3   
  13 O13            1.1965     3.4253    -0.2616 O.2     
  14 C14           -3.4829    -0.1394     0.9252 C.2     
  15 C15           -3.5824    -1.6177     0.8974 C.ar    
  16 O16           -4.4920     0.5373     0.9385 O.2     
  17 C17           -0.9628     3.8920     0.0743 C.3     
  18 C18           -2.1224     2.2731    -1.4417 C.3     
  19 C19            5.7713     0.9109     0.1171 C.ar    
  20 C20            6.3922     2.1440     0.2635 C.ar    
  21 C21            7.7655     2.2135     0.3960 C.ar    
  22 C22            8.5223     1.0568     0.3825 C.ar    
  23 C23            7.9068    -0.1744     0.2367 C.ar    
  24 C24            6.5326    -0.2503     0.1100 C.ar    
  25 C25           -4.7919    -2.2212     0.5577 C.ar    
  26 N26           -2.5185    -2.3524     1.1906 N.ar    
  27 C27           -2.5657    -3.6751     1.1772 C.ar    
  28 C28           -3.7483    -4.3426     0.8509 C.ar    
  29 C29           -4.8760    -3.6053     0.5342 C.ar    
  30 C30           -1.3503    -4.4561     1.5117 C.ar    
  31 C31           -0.1656    -3.7960     1.8381 C.ar    
  32 C32            0.9635    -4.5200     2.1488 C.ar    
  33 C33            0.9222    -5.9167     2.1375 C.ar    
  34 C34           -0.2653    -6.5768     1.8108 C.ar    
  35 C35           -1.3943    -5.8504     1.5052 C.ar    
  36 Cl36           8.8609    -1.6247     0.2203 Cl      
  37 C37            2.0960    -6.6710     2.4600 C.1     
  38 N38            3.0271    -7.2694     2.7158 N.1     
  39 H39           -0.7024    -0.1101    -1.2681 H       
  40 H40            0.7826    -0.2909    -0.2980 H       
  41 H41           -1.3028    -1.3959     0.6953 H       
  42 H42           -0.4738    -0.2422     1.7727 H       
  43 H43           -3.1514     2.3645     0.9976 H       
  44 H44           -1.6663     2.1838     1.9677 H       
  45 H45            4.0508    -1.2991    -0.1990 H       
  46 H46           -0.2158     3.9688     0.8644 H       
  47 H47           -0.5596     4.3089    -0.8486 H       
  48 H48           -1.8558     4.4460     0.3635 H       
  49 H49           -3.0402     2.8568    -1.3718 H       
  50 H50           -1.5255     2.6336    -2.2795 H       
  51 H51           -2.3704     1.2232    -1.5975 H       
  52 H52            5.8019     3.0484     0.2735 H       
  53 H53            8.2484     3.1728     0.5099 H       
  54 H54            9.5959     1.1139     0.4856 H       
  55 H55            6.0523    -1.2110    -0.0034 H       
  56 H56           -5.6543    -1.6177     0.3159 H       
  57 H57           -3.7812    -5.4221     0.8416 H       
  58 H58           -5.8027    -4.0974     0.2784 H       
  59 H59           -0.1340    -2.7165     1.8467 H       
  60 H60            1.8808    -4.0087     2.4008 H       
  61 H61           -0.2985    -7.6562     1.8017 H       
  62 H62           -2.3123    -6.3602     1.2527 H       
@<TRIPOS>BOND
   1    1    2 1
   2    1    7 am
   3    1    6 1
   4    2    3 1
   5    2   39 1
   6    2   40 1
   7    3    4 1
   8    3   41 1
   9    3   42 1
  10    4    5 1
  11    4   14 am
  12    5    6 1
  13    5   43 1
  14    5   44 1
  15    6   17 1
  16    6   18 1
  17    7    8 1
  18    7   13 2
  19    8    9 2
  20    8   10 1
  21    9   12 1
  22   10   11 2
  23   11   12 1
  24   11   45 1
  25   12   19 1
  26   14   15 1
  27   14   16 2
  28   15   26 ar
  29   15   25 ar
  30   17   46 1
  31   17   47 1
  32   17   48 1
  33   18   49 1
  34   18   50 1
  35   18   51 1
  36   19   20 ar
  37   19   24 ar
  38   20   21 ar
  39   20   52 1
  40   21   22 ar
  41   21   53 1
  42   22   23 ar
  43   22   54 1
  44   23   24 ar
  45   23   36 1
  46   24   55 1
  47   25   29 ar
  48   25   56 1
  49   26   27 ar
  50   27   28 ar
  51   27   30 1
  52   28   29 ar
  53   28   57 1
  54   29   58 1
  55   30   31 ar
  56   30   35 ar
  57   31   32 ar
  58   31   59 1
  59   32   33 ar
  60   32   60 1
  61   33   34 ar
  62   33   37 1
  63   34   35 ar
  64   34   61 1
  65   35   62 1
  66   37   38 3

#	End of record

