#	Name: ASD02110002
#	Creating user name:	WinNT
#	Creation time:	15. 06. 2019 20:18

#	Modifying user name:	WinNT
#	Modification time:	15. 06. 2019 20:18

#	Program:	/corina/corina34_cracker 3.40 0067  02.08.2006

@<TRIPOS>MOLECULE
ASD02110002
  46   46    0    0    0
SMALL
NO_CHARGES


@<TRIPOS>ATOM
   1 N1             0.1941     1.6969    -0.1536 N.pl3   
   2 C2             0.0364     0.3208    -0.1277 C.ar    
   3 C3             1.1497    -0.5197    -0.0668 C.ar    
   4 C4             2.5450     0.0482    -0.0277 C.3     
   5 N5             2.8557     0.4869     1.3351 N.2     
   6 C6             2.6373     1.6996     1.7179 C.2     
   7 S7             3.1026     1.8949     3.3515 S.3     
   8 C8             3.5988     0.2056     3.4212 C.2     
   9 C9             4.1780    -0.4995     4.6205 C.3     
  10 C10            5.7021    -0.3660     4.6038 C.3     
  11 C11            3.3653    -0.3413     2.2245 C.2     
  12 C12            3.6642    -1.7858     1.9159 C.3     
  13 C13            0.9400    -1.8847    -0.0427 C.ar    
  14 N14           -0.3010    -2.3489    -0.0779 N.ar    
  15 C15           -1.3313    -1.5292    -0.1354 C.ar    
  16 C16           -2.7237    -2.1042    -0.1737 C.3     
  17 N17           -1.1780    -0.2207    -0.1551 N.ar    
  18 P18            7.8315    -1.0966     6.0434 P.3     
  19 O19            8.3810     0.2771     6.0799 O.2     
  20 O20            6.2513    -1.0347     5.7411 O.3     
  21 O21            9.2705    -0.4870     9.3979 O.3     
  22 O22            8.5670    -1.9382     4.8845 O.3     
  23 O23            8.0783    -1.8113     7.4647 O.3     
  24 P24            9.3030    -1.8294     8.5097 P.3     
  25 O25           10.5824    -1.9002     7.7692 O.2     
  26 O26            9.1683    -3.1131     9.4722 O.3     
  27 H27            1.0833     2.0838    -0.1292 H       
  28 H28           -0.5845     2.2735    -0.2000 H       
  29 H29            3.2577    -0.7175    -0.3342 H       
  30 H30            2.6105     0.8982    -0.7069 H       
  31 H31            2.2209     2.4785     1.0964 H       
  32 H32            3.7838    -0.0498     5.5319 H       
  33 H33            3.9053    -1.5544     4.5886 H       
  34 H34            6.0962    -0.8157     3.6925 H       
  35 H35            5.9748     0.6889     4.6358 H       
  36 H36            4.6471    -1.8622     1.4510 H       
  37 H37            3.6533    -2.3644     2.8396 H       
  38 H38            2.9084    -2.1756     1.2340 H       
  39 H39            1.7771    -2.5654     0.0040 H       
  40 H40           -3.0976    -2.2188     0.8438 H       
  41 H41           -3.3791    -1.4324    -0.7280 H       
  42 H42           -2.7016    -3.0772    -0.6644 H       
  43 H43            8.4589    -0.3747     9.9114 H       
  44 H44            8.2561    -2.8502     4.8031 H       
  45 H45            9.8742    -3.1882    10.1287 H       
  46 Cl46          15.5824     7.4785    15.1287 Cl      
@<TRIPOS>BOND
   1    1    2 1
   2    1   27 1
   3    1   28 1
   4    2    3 ar
   5    2   17 ar
   6    3    4 1
   7    3   13 ar
   8    4    5 1
   9    4   29 1
  10    4   30 1
  11    5    6 2
  12    5   11 1
  13    6    7 1
  14    6   31 1
  15    7    8 1
  16    8    9 1
  17    8   11 2
  18    9   10 1
  19    9   32 1
  20    9   33 1
  21   10   20 1
  22   10   34 1
  23   10   35 1
  24   11   12 1
  25   12   36 1
  26   12   37 1
  27   12   38 1
  28   13   14 ar
  29   13   39 1
  30   14   15 ar
  31   15   16 1
  32   15   17 ar
  33   16   40 1
  34   16   41 1
  35   16   42 1
  36   18   19 2
  37   18   20 1
  38   18   22 1
  39   18   23 1
  40   21   24 1
  41   21   43 1
  42   22   44 1
  43   23   24 1
  44   24   25 2
  45   24   26 1
  46   26   45 1

#	End of record

