#	Name: ASD01150803
#	Creating user name:	WinNT
#	Creation time:	15. 06. 2019 19:05

#	Modifying user name:	WinNT
#	Modification time:	15. 06. 2019 19:05

#	Program:	/corina/corina34_cracker 3.40 0067  02.08.2006

@<TRIPOS>MOLECULE
ASD01150803
  55   56    0    0    0
SMALL
NO_CHARGES


@<TRIPOS>ATOM
   1 N1             0.1573     2.3746     0.2176 N.3     
   2 C2            -0.5835     2.4961     1.4804 C.3     
   3 C3             0.8040     1.0599     0.1111 C.3     
   4 N4            -1.2151     4.5487    -2.3322 N.3     
   5 C5            -1.2191     4.0847    -0.9327 C.3     
   6 C6            -0.7203     2.6244    -0.9336 C.3     
   7 C7             0.0762     2.5281    -2.2615 C.3     
   8 C8            -0.7610     3.4374    -3.1952 C.3     
   9 C9            -2.5476     5.0176    -2.7352 C.3     
  10 C10           -1.2638     6.5670    -5.8160 C.ar    
  11 N11           -1.3335     6.0601    -4.6013 N.ar    
  12 C12           -2.4775     5.5959    -4.1251 C.ar    
  13 C13           -3.6104     5.6483    -4.9221 C.ar    
  14 C14           -3.4975     6.1882    -6.1934 C.ar    
  15 N15           -2.3198     6.6331    -6.6016 N.ar    
  16 C16           -4.6995     6.2674    -7.0989 C.3     
  17 S17           -3.7097     3.6248    -2.7177 S.3     
  18 C18           -5.5497     5.2228    -1.4757 C.3     
  19 C19           -4.7217     3.9563    -1.2492 C.3     
  20 C20           -5.6583     2.7728    -0.9976 C.3     
  21 C21           -4.8317     1.5336    -0.6483 C.3     
  22 C22           -5.7683     0.3502    -0.3967 C.3     
  23 C23           -4.9417    -0.8890    -0.0474 C.3     
  24 H24            0.1038     2.3758     2.3178 H       
  25 H25           -1.0524     3.4787     1.5334 H       
  26 H26           -1.3515     1.7240     1.5268 H       
  27 H27            0.0433     0.2792     0.1174 H       
  28 H28            1.3704     1.0079    -0.8187 H       
  29 H29            1.4781     0.9171     0.9557 H       
  30 H30           -0.5510     4.7045    -0.3346 H       
  31 H31           -2.2309     4.1307    -0.5297 H       
  32 H32           -1.5605     1.9301    -0.9338 H       
  33 H33            1.0867     2.9181    -2.1399 H       
  34 H34            0.0969     1.5028    -2.6309 H       
  35 H35           -1.6167     2.8901    -3.5906 H       
  36 H36           -0.1432     3.8170    -4.0090 H       
  37 H37           -2.8888     5.7843    -2.0395 H       
  38 H38           -0.3170     6.9423    -6.1754 H       
  39 H39           -4.5581     5.2768    -4.5612 H       
  40 H40           -5.2110     7.2171    -6.9416 H       
  41 H41           -4.3772     6.1960    -8.1377 H       
  42 H42           -5.3798     5.4465    -6.8723 H       
  43 H43           -6.2299     5.3671    -0.6363 H       
  44 H44           -4.8843     6.0823    -1.5562 H       
  45 H45           -6.1249     5.1211    -2.3960 H       
  46 H46           -4.0727     4.0962    -0.3847 H       
  47 H47           -6.3273     3.0085    -0.1700 H       
  48 H48           -6.2453     2.5769    -1.8949 H       
  49 H49           -4.1627     1.2979    -1.4759 H       
  50 H50           -4.2447     1.7295     0.2490 H       
  51 H51           -6.4373     0.5859     0.4310 H       
  52 H52           -6.3553     0.1543    -1.2939 H       
  53 H53           -4.2727    -1.1247    -0.8750 H       
  54 H54           -4.3547    -0.6931     0.8499 H       
  55 H55           -5.6090    -1.7321     0.1319 H       
@<TRIPOS>BOND
   1    1    2 1
   2    1    3 1
   3    1    6 1
   4    2   24 1
   5    2   25 1
   6    2   26 1
   7    3   27 1
   8    3   28 1
   9    3   29 1
  10    4    5 1
  11    4    8 1
  12    4    9 1
  13    5    6 1
  14    5   30 1
  15    5   31 1
  16    6    7 1
  17    6   32 1
  18    7    8 1
  19    7   33 1
  20    7   34 1
  21    8   35 1
  22    8   36 1
  23    9   12 1
  24    9   17 1
  25    9   37 1
  26   10   11 ar
  27   10   15 ar
  28   10   38 1
  29   11   12 ar
  30   12   13 ar
  31   13   14 ar
  32   13   39 1
  33   14   15 ar
  34   14   16 1
  35   16   40 1
  36   16   41 1
  37   16   42 1
  38   17   19 1
  39   18   19 1
  40   18   43 1
  41   18   44 1
  42   18   45 1
  43   19   20 1
  44   19   46 1
  45   20   21 1
  46   20   47 1
  47   20   48 1
  48   21   22 1
  49   21   49 1
  50   21   50 1
  51   22   23 1
  52   22   51 1
  53   22   52 1
  54   23   53 1
  55   23   54 1
  56   23   55 1

#	End of record

