#	Name: ASD03331372
#	Creating user name:	WinNT
#	Creation time:	15. 06. 2019 20:39

#	Modifying user name:	WinNT
#	Modification time:	15. 06. 2019 20:39

#	Program:	/corina/corina34_cracker 3.40 0067  02.08.2006

@<TRIPOS>MOLECULE
ASD03331372
  27   29    0    0    0
SMALL
NO_CHARGES


@<TRIPOS>ATOM
   1 N1            -0.0109     1.3979    -0.1177 N.2     
   2 N2             0.0057    -0.0050    -0.0738 N.pl3   
   3 C3             1.2792    -0.4010     0.0714 C.2     
   4 C4             2.0608     0.7088     0.1216 C.2     
   5 C5             1.2310     1.8287     0.0001 C.2     
   6 C6             1.8331    -1.8010     0.1678 C.3     
   7 C7             3.5596     0.6501     0.2848 C.3     
   8 C8             3.9219    -0.7633     0.7645 C.3     
   9 O9             3.2497    -1.7322    -0.0446 O.3     
  10 C10            1.6687     3.2467     0.0032 C.ar    
  11 C11            0.9992     4.1847     0.7902 C.ar    
  12 C12            1.4120     5.5039     0.7892 C.ar    
  13 C13            2.4857     5.8943     0.0100 C.ar    
  14 C14            3.1530     4.9677    -0.7723 C.ar    
  15 C15            2.7528     3.6452    -0.7748 C.ar    
  16 F16           -0.0503     3.8043     1.5511 F       
  17 Cl17           4.4994     5.4670    -1.7478 Cl      
  18 H18           -0.7681    -0.5864    -0.1372 H       
  19 H19            1.6282    -2.2110     1.1567 H       
  20 H20            1.3762    -2.4313    -0.5951 H       
  21 H21            4.0435     0.8512    -0.6710 H       
  22 H22            3.8799     1.3845     1.0237 H       
  23 H23            4.9992    -0.9086     0.6848 H       
  24 H24            3.6160    -0.8833     1.8038 H       
  25 H25            0.8949     6.2311     1.3978 H       
  26 H26            2.8046     6.9261     0.0115 H       
  27 H27            3.2771     2.9226    -1.3826 H       
@<TRIPOS>BOND
   1    1    2 1
   2    1    5 2
   3    2    3 1
   4    2   18 1
   5    3    4 2
   6    3    6 1
   7    4    5 1
   8    4    7 1
   9    5   10 1
  10    6    9 1
  11    6   19 1
  12    6   20 1
  13    7    8 1
  14    7   21 1
  15    7   22 1
  16    8    9 1
  17    8   23 1
  18    8   24 1
  19   10   11 ar
  20   10   15 ar
  21   11   12 ar
  22   11   16 1
  23   12   13 ar
  24   12   25 1
  25   13   14 ar
  26   13   26 1
  27   14   15 ar
  28   14   17 1
  29   15   27 1

#	End of record

