#	Name: ASD01950012
#	Creating user name:	WinNT
#	Creation time:	15. 06. 2019 20:14

#	Modifying user name:	WinNT
#	Modification time:	15. 06. 2019 20:14

#	Program:	/corina/corina34_cracker 3.40 0067  02.08.2006

@<TRIPOS>MOLECULE
ASD01950012
  30   32    0    0    0
SMALL
NO_CHARGES


@<TRIPOS>ATOM
   1 C1            -0.0167     1.3810     0.0096 C.ar    
   2 C2             0.0021    -0.0041     0.0020 C.ar    
   3 C3             1.2094    -0.6749    -0.0131 C.ar    
   4 C4             2.4059     0.0245    -0.0203 C.ar    
   5 C5             2.4064     1.4040    -0.0129 C.ar    
   6 C6             1.1948     2.0903     0.0019 C.ar    
   7 C7             1.1409     3.5648     0.0108 C.2     
   8 N8            -0.0767     4.1526     0.0261 N.am    
   9 C9            -1.1964     3.4111     0.0327 C.2     
  10 O10           -1.1814     2.0702     0.0301 O.3     
  11 O11           -2.2698     3.9800     0.0465 O.2     
  12 C12           -0.1756     5.6142     0.0359 C.3     
  13 C13           -0.2231     6.1240    -1.3815 C.ar    
  14 C14           -1.4393     6.2769    -2.0206 C.ar    
  15 C15           -1.4829     6.7445    -3.3207 C.ar    
  16 C16           -0.3104     7.0596    -3.9816 C.ar    
  17 C17            0.9058     6.9075    -3.3422 C.ar    
  18 C18            0.9491     6.4440    -2.0406 C.ar    
  19 O19            2.1585     4.2298     0.0051 O.2     
  20 H20           -0.9250    -0.5581     0.0083 H       
  21 H21            1.2211    -1.7548    -0.0190 H       
  22 H22            3.3425    -0.5131    -0.0314 H       
  23 H23            3.3395     1.9477    -0.0182 H       
  24 H24           -1.0831     5.9135     0.5602 H       
  25 H25            0.6927     6.0337     0.5439 H       
  26 H26           -2.3554     6.0308    -1.5043 H       
  27 H27           -2.4330     6.8633    -3.8203 H       
  28 H28           -0.3444     7.4242    -4.9976 H       
  29 H29            1.8219     7.1534    -3.8587 H       
  30 H30            1.8990     6.3287    -1.5397 H       
@<TRIPOS>BOND
   1    1    2 ar
   2    1    6 ar
   3    1   10 1
   4    2    3 ar
   5    2   20 1
   6    3    4 ar
   7    3   21 1
   8    4    5 ar
   9    4   22 1
  10    5    6 ar
  11    5   23 1
  12    6    7 1
  13    7    8 am
  14    7   19 2
  15    8    9 am
  16    8   12 1
  17    9   10 1
  18    9   11 2
  19   12   13 1
  20   12   24 1
  21   12   25 1
  22   13   14 ar
  23   13   18 ar
  24   14   15 ar
  25   14   26 1
  26   15   16 ar
  27   15   27 1
  28   16   17 ar
  29   16   28 1
  30   17   18 ar
  31   17   29 1
  32   18   30 1

#	End of record

