#	Name: ASD09450001
#	Creating user name:	WinNT
#	Creation time:	15. 06. 2019 21:22

#	Modifying user name:	WinNT
#	Modification time:	15. 06. 2019 21:22

#	Program:	/corina/corina34_cracker 3.40 0067  02.08.2006

@<TRIPOS>MOLECULE
ASD09450001
 117  122    0    0    0
SMALL
NO_CHARGES


@<TRIPOS>ATOM
   1 C1             2.0066    -1.1077     2.4251 C.3     
   2 C2             2.8966    -2.2365     2.9513 C.3     
   3 C3             3.7189    -1.6886     4.1164 C.3     
   4 C4             4.6133    -0.5641     3.5937 C.3     
   5 C5             3.7991     0.5388     2.9092 C.3     
   6 C6             4.7445     1.5867     2.2929 C.3     
   7 C7             5.6861     2.1272     3.3700 C.3     
   8 C8             6.5414     3.2667     2.7933 C.3     
   9 C9             5.5993     4.3859     2.3614 C.3     
  10 C10            6.3013     5.7107     2.1525 C.3     
  11 C11            5.3070     6.7896     1.7068 C.3     
  12 C12            4.4736     6.3168     0.5205 C.3     
  13 C13            3.7149     5.0438     0.8873 C.3     
  14 C14            4.7177     3.9181     1.2084 C.3     
  15 C15            3.9123     2.7060     1.6871 C.3     
  16 C16            3.0025     2.1643     0.5894 C.3     
  17 C17            2.0697     1.0988     1.1822 C.3     
  18 C18            2.8911    -0.0254     1.8156 C.3     
  19 C19            1.8680    -3.3092     3.3276 C.3     
  20 C20            0.7190    -3.1218     2.3426 C.3     
  21 C21            1.0780    -1.8956     1.4809 C.3     
  22 C22            3.8017    -2.7981     1.8856 C.2     
  23 O23            3.7655    -2.3495     0.7643 O.2     
  24 O24            4.6481    -3.7969     2.1819 O.3     
  25 C25           -0.4833    -0.7919    -0.0441 C.2     
  26 C26           -0.1871    -1.1214     1.1887 C.2     
  27 C27           -1.1074    -0.7287     2.3155 C.3     
  28 C28            5.4912     3.6062    -0.0643 C.3     
  29 C29            6.8636     6.1824     3.5162 C.3     
  30 C30            7.4744     5.6347     1.1825 C.3     
  31 C31            5.5977     0.8710     1.2350 C.3     
  32 C32            2.9422     1.2073     3.9895 C.3     
  33 C33            6.0816     8.0521     1.3155 C.3     
  34 C34            5.1100     9.1580     0.9934 C.2     
  35 C35            5.6216    10.5131     0.5773 C.3     
  36 O36            3.9213     8.9584     1.0686 O.2     
  37 N37            4.4852    11.4080     0.3211 N.3     
  38 C38            4.9451    12.7721     0.0278 C.3     
  39 C39            5.7396    12.7724    -1.2797 C.3     
  40 C40            6.2186    14.1930    -1.5851 C.3     
  41 C41            5.0094    15.1203    -1.7229 C.3     
  42 C42            4.2148    15.1200    -0.4154 C.3     
  43 C43            3.7359    13.6993    -0.1100 C.3     
  44 C44            3.0056    16.0472    -0.5532 C.3     
  45 O45            3.4545    17.3933    -0.7225 O.3     
  46 O46            5.4567    16.4472    -2.0081 O.3     
  47 O47            6.9607    14.1933    -2.8063 O.3     
  48 O48            4.9051    12.3119    -2.3443 O.3     
  49 O49            3.6463    10.8935    -0.7615 O.3     
  50 C50            2.2957    10.6311    -0.3756 C.3     
  51 H51            1.4014    -0.7011     3.2421 H       
  52 H52            3.0608    -1.3267     4.9040 H       
  53 H53            4.3463    -2.4896     4.5235 H       
  54 H54            5.1285    -0.1168     4.4563 H       
  55 H55            5.3677    -0.9720     2.9345 H       
  56 H56            5.1261     2.5187     4.2158 H       
  57 H57            6.3483     1.3294     3.7085 H       
  58 H58            7.2115     3.6133     3.5835 H       
  59 H59            7.1387     2.9069     1.9655 H       
  60 H60            4.9023     4.5402     3.2260 H       
  61 H61            4.6448     7.0256     2.5437 H       
  62 H62            3.7409     7.0989     0.2744 H       
  63 H63            5.0996     6.1656    -0.3526 H       
  64 H64            3.0949     5.2235     1.7639 H       
  65 H65            3.0917     4.7353     0.0499 H       
  66 H66            3.2443     3.1160     2.4753 H       
  67 H67            2.3840     2.9778     0.1964 H       
  68 H68            3.5682     1.7285    -0.2265 H       
  69 H69            1.3973     1.5503     1.9003 H       
  70 H70            1.4838     0.6867     0.3520 H       
  71 H71            3.4939    -0.4705     1.0146 H       
  72 H72            2.3088    -4.2993     3.2171 H       
  73 H73            1.5265    -3.1549     4.3496 H       
  74 H74            0.6191    -4.0014     1.7066 H       
  75 H75           -0.2120    -2.9373     2.8770 H       
  76 H76            1.5731    -2.1831     0.5624 H       
  77 H77            5.2088    -4.1242     1.4653 H       
  78 H78           -1.3871    -0.2388    -0.2529 H       
  79 H79            0.1762    -1.0733    -0.8517 H       
  80 H80           -0.5686    -0.0962     3.0210 H       
  81 H81           -1.9600    -0.1809     1.9142 H       
  82 H82           -1.4593    -1.6249     2.8264 H       
  83 H83            6.3845     3.0334     0.1846 H       
  84 H84            4.8625     3.0243    -0.7382 H       
  85 H85            5.7807     4.5376    -0.5510 H       
  86 H86            7.5678     5.4415     3.8947 H       
  87 H87            7.3742     7.1369     3.3880 H       
  88 H88            6.0446     6.3009     4.2255 H       
  89 H89            7.1034     5.4238     0.1795 H       
  90 H90            8.0064     6.5861     1.1806 H       
  91 H91            8.1523     4.8400     1.4938 H       
  92 H92            4.9644     0.5695     0.4006 H       
  93 H93            6.3739     1.5469     0.8762 H       
  94 H94            6.0603    -0.0113     1.6773 H       
  95 H95            3.5902     1.6299     4.7574 H       
  96 H96            2.3456     2.0013     3.5404 H       
  97 H97            2.2814     0.4663     4.4393 H       
  98 H98            6.7193     8.3587     2.1446 H       
  99 H99            6.6979     7.8437     0.4409 H       
 100 H100           6.2389    10.9286     1.3738 H       
 101 H101           6.2175    10.4136    -0.3299 H       
 102 H102           5.5816    13.1233     0.8399 H       
 103 H103           6.6011    12.1118    -1.1815 H       
 104 H104           6.8551    14.5443    -0.7730 H       
 105 H105           4.3728    14.7690    -2.5350 H       
 106 H106           4.8514    15.4713     0.3967 H       
 107 H107           3.0993    13.3480    -0.9221 H       
 108 H108           3.1698    13.6991     0.8215 H       
 109 H109           2.4161    15.7491    -1.4201 H       
 110 H110           2.3914    15.9792     0.3447 H       
 111 H111           2.7394    18.0375    -0.8165 H       
 112 H112           5.9686    16.5226    -2.8250 H       
 113 H113           7.2960    15.0634    -3.0625 H       
 114 H114           5.3444    12.2859    -3.2054 H       
 115 H115           2.2834     9.8880     0.4218 H       
 116 H116           1.8337    11.5524    -0.0208 H       
 117 H117           1.7397    10.2528    -1.2334 H       
@<TRIPOS>BOND
   1    1    2 1
   2    1   18 1
   3    1   21 1
   4    1   51 1
   5    2    3 1
   6    2   19 1
   7    2   22 1
   8    3    4 1
   9    3   52 1
  10    3   53 1
  11    4    5 1
  12    4   54 1
  13    4   55 1
  14    5    6 1
  15    5   18 1
  16    5   32 1
  17    6    7 1
  18    6   15 1
  19    6   31 1
  20    7    8 1
  21    7   56 1
  22    7   57 1
  23    8    9 1
  24    8   58 1
  25    8   59 1
  26    9   10 1
  27    9   14 1
  28    9   60 1
  29   10   11 1
  30   10   29 1
  31   10   30 1
  32   11   12 1
  33   11   33 1
  34   11   61 1
  35   12   13 1
  36   12   62 1
  37   12   63 1
  38   13   14 1
  39   13   64 1
  40   13   65 1
  41   14   15 1
  42   14   28 1
  43   15   16 1
  44   15   66 1
  45   16   17 1
  46   16   67 1
  47   16   68 1
  48   17   18 1
  49   17   69 1
  50   17   70 1
  51   18   71 1
  52   19   20 1
  53   19   72 1
  54   19   73 1
  55   20   21 1
  56   20   74 1
  57   20   75 1
  58   21   26 1
  59   21   76 1
  60   22   23 2
  61   22   24 1
  62   24   77 1
  63   25   26 2
  64   25   78 1
  65   25   79 1
  66   26   27 1
  67   27   80 1
  68   27   81 1
  69   27   82 1
  70   28   83 1
  71   28   84 1
  72   28   85 1
  73   29   86 1
  74   29   87 1
  75   29   88 1
  76   30   89 1
  77   30   90 1
  78   30   91 1
  79   31   92 1
  80   31   93 1
  81   31   94 1
  82   32   95 1
  83   32   96 1
  84   32   97 1
  85   33   34 1
  86   33   98 1
  87   33   99 1
  88   34   35 1
  89   34   36 2
  90   35   37 1
  91   35  100 1
  92   35  101 1
  93   37   38 1
  94   37   49 1
  95   38   39 1
  96   38   43 1
  97   38  102 1
  98   39   40 1
  99   39   48 1
 100   39  103 1
 101   40   41 1
 102   40   47 1
 103   40  104 1
 104   41   42 1
 105   41   46 1
 106   41  105 1
 107   42   43 1
 108   42   44 1
 109   42  106 1
 110   43  107 1
 111   43  108 1
 112   44   45 1
 113   44  109 1
 114   44  110 1
 115   45  111 1
 116   46  112 1
 117   47  113 1
 118   48  114 1
 119   49   50 1
 120   50  115 1
 121   50  116 1
 122   50  117 1

#	End of record

