#	Name: ASD06340021
#	Creating user name:	WinNT
#	Creation time:	15. 06. 2019 21:05

#	Modifying user name:	WinNT
#	Modification time:	15. 06. 2019 21:05

#	Program:	/corina/corina34_cracker 3.40 0067  02.08.2006

@<TRIPOS>MOLECULE
ASD06340021
  19   19    0    0    0
SMALL
NO_CHARGES


@<TRIPOS>ATOM
   1 C1            -0.0162     1.3444     0.0094 C.2     
   2 N2             0.0021    -0.0041     0.0020 N.am    
   3 N3             1.3491    -0.3972    -0.0130 N.am    
   4 C4             2.0900     0.7297    -0.0140 C.2     
   5 N5             1.2553     1.7854    -0.0003 N.am    
   6 C6             1.8550    -1.7721    -0.0247 C.3     
   7 O7            -1.0112     2.0424     0.0182 O.2     
   8 C8             1.6658     3.1917     0.0026 C.3     
   9 C9             2.0445    -2.2581     1.4136 C.3     
  10 O10            3.3042     0.7828    -0.0253 O.2     
  11 H11           -0.7700    -0.5913     0.0065 H       
  12 H12            1.1405    -2.4177    -0.5353 H       
  13 H13            2.8109    -1.8030    -0.5476 H       
  14 H14            0.7812     3.8284     0.0143 H       
  15 H15            2.2695     3.3922     0.8877 H       
  16 H16            2.2522     3.4009    -0.8922 H       
  17 H17            2.7590    -1.6124     1.9242 H       
  18 H18            1.0886    -2.2272     1.9364 H       
  19 H19            2.4209    -3.2810     1.4048 H       
@<TRIPOS>BOND
   1    1    2 am
   2    1    5 am
   3    1    7 2
   4    2    3 1
   5    2   11 1
   6    3    4 am
   7    3    6 1
   8    4    5 am
   9    4   10 2
  10    5    8 1
  11    6    9 1
  12    6   12 1
  13    6   13 1
  14    8   14 1
  15    8   15 1
  16    8   16 1
  17    9   17 1
  18    9   18 1
  19    9   19 1

#	End of record

