#	Name: ASD01870113
#	Creating user name:	WinNT
#	Creation time:	15. 06. 2019 19:38

#	Modifying user name:	WinNT
#	Modification time:	15. 06. 2019 19:38

#	Program:	/corina/corina34_cracker 3.40 0067  02.08.2006

@<TRIPOS>MOLECULE
ASD01870113
  29   30    0    0    0
SMALL
NO_CHARGES


@<TRIPOS>ATOM
   1 C1            -0.0168     1.3750    -0.0148 C.ar    
   2 C2             0.0024    -0.0054    -0.0248 C.ar    
   3 C3             1.2080    -0.6899    -0.0352 C.ar    
   4 C4             2.4005     0.0025    -0.0352 C.ar    
   5 C5             2.3945     1.3997    -0.0251 C.ar    
   6 C6             1.1734     2.0871    -0.0151 C.ar    
   7 O7             1.1554     3.4437    -0.0057 O.3     
   8 Cl8            1.2164    -2.4258    -0.0477 Cl      
   9 C9             3.6663     2.1469    -0.0246 C.2     
  10 O10            3.6571     3.3628    -0.0158 O.2     
  11 N11            4.8386     1.4819    -0.0338 N.am    
  12 C12            6.0414     2.1865    -0.1461 C.ar    
  13 C13            7.1754     1.7381     0.5188 C.ar    
  14 C14            6.1059     3.3330    -0.9273 C.ar    
  15 C15            7.2954     4.0263    -1.0365 C.ar    
  16 C16            8.4213     3.5801    -0.3691 C.ar    
  17 C17            8.3617     2.4360     0.4054 C.ar    
  18 N18            9.6946     4.3253    -0.4888 N.pl3   
  19 O19            9.7499     5.3304    -1.1746 O.2     
  20 O20           10.6871     3.9335     0.0985 O.2     
  21 H21           -0.9599     1.9011    -0.0112 H       
  22 H22           -0.9272    -0.5553    -0.0242 H       
  23 H23            3.3376    -0.5343    -0.0426 H       
  24 H24            1.1464     3.8431    -0.8864 H       
  25 H25            4.8480     0.5145     0.0375 H       
  26 H26            7.1294     0.8448     1.1240 H       
  27 H27            5.2271     3.6818    -1.4492 H       
  28 H28            7.3464     4.9177    -1.6442 H       
  29 H29            9.2427     2.0903     0.9257 H       
@<TRIPOS>BOND
   1    1    2 ar
   2    1    6 ar
   3    1   21 1
   4    2    3 ar
   5    2   22 1
   6    3    4 ar
   7    3    8 1
   8    4    5 ar
   9    4   23 1
  10    5    6 ar
  11    5    9 1
  12    6    7 1
  13    7   24 1
  14    9   10 2
  15    9   11 am
  16   11   12 1
  17   11   25 1
  18   12   13 ar
  19   12   14 ar
  20   13   17 ar
  21   13   26 1
  22   14   15 ar
  23   14   27 1
  24   15   16 ar
  25   15   28 1
  26   16   17 ar
  27   16   18 1
  28   17   29 1
  29   18   19 2
  30   18   20 2

#	End of record

