#	Name: ASD08150626
#	Creating user name:	WinNT
#	Creation time:	15. 06. 2019 21:16

#	Modifying user name:	WinNT
#	Modification time:	15. 06. 2019 21:16

#	Program:	/corina/corina34_cracker 3.40 0067  02.08.2006

@<TRIPOS>MOLECULE
ASD08150626
  46   50    0    0    0
SMALL
NO_CHARGES


@<TRIPOS>ATOM
   1 N1            -0.0162     1.3429     0.0094 N.am    
   2 C2             0.5248     0.9221     1.1692 C.2     
   3 C3             1.7535     0.2311     1.1858 C.2     
   4 C4             2.4117    -0.0202     0.0257 C.2     
   5 C5             1.8455     0.4210    -1.1966 C.ar    
   6 C6             2.4872     0.1856    -2.4277 C.ar    
   7 N7             1.9627     0.5937    -3.5535 N.ar    
   8 C8             0.7952     1.2532    -3.6026 C.ar    
   9 C9             0.0803     1.5334    -2.4128 C.ar    
  10 C10            0.6207     1.1058    -1.1783 C.ar    
  11 C11           -1.1365     2.2228    -2.4794 C.ar    
  12 C12           -1.6235     2.6192    -3.6914 C.ar    
  13 C13           -0.9233     2.3449    -4.8629 C.ar    
  14 C14            0.2637     1.6762    -4.8308 C.ar    
  15 O15           -0.0557     1.1421     2.2184 O.2     
  16 Cl16          -3.1323     3.4739    -3.7729 Cl      
  17 C17           -1.2402     2.0219     0.0189 C.ar    
  18 C18           -2.4301     1.3130    -0.0841 C.ar    
  19 C19           -3.6361     1.9860    -0.0745 C.ar    
  20 C20           -3.6597     3.3641     0.0370 C.ar    
  21 C21           -2.4768     4.0729     0.1398 C.ar    
  22 C22           -1.2677     3.4055     0.1370 C.ar    
  23 C23           -4.9775     4.0952     0.0462 C.3     
  24 C24           -5.4710     4.2234     1.4643 C.ar    
  25 C25           -5.1183     5.3245     2.2220 C.ar    
  26 C26           -5.5709     5.4421     3.5228 C.ar    
  27 C27           -6.3766     4.4588     4.0658 C.ar    
  28 C28           -6.7301     3.3582     3.3079 C.ar    
  29 C29           -6.2810     3.2427     2.0056 C.ar    
  30 H30            2.1727    -0.0990     2.1248 H       
  31 H31            3.3536    -0.5486     0.0337 H       
  32 H32            3.4298    -0.3413    -2.4421 H       
  33 H33           -1.6873     2.4396    -1.5761 H       
  34 H34           -1.3268     2.6668    -5.8115 H       
  35 H35            0.7946     1.4721    -5.7489 H       
  36 H36           -2.4122     0.2368    -0.1720 H       
  37 H37           -4.5617     1.4353    -0.1546 H       
  38 H38           -2.4986     5.1492     0.2268 H       
  39 H39           -0.3443     3.9592     0.2221 H       
  40 H40           -4.8451     5.0881    -0.3836 H       
  41 H41           -5.7060     3.5384    -0.5431 H       
  42 H42           -4.4888     6.0928     1.7977 H       
  43 H43           -5.2948     6.3021     4.1150 H       
  44 H44           -6.7297     4.5504     5.0824 H       
  45 H45           -7.3592     2.5898     3.7322 H       
  46 H46           -6.5601     2.3846     1.4122 H       
@<TRIPOS>BOND
   1    1    2 am
   2    1   10 1
   3    1   17 1
   4    2    3 1
   5    2   15 2
   6    3    4 2
   7    3   30 1
   8    4    5 1
   9    4   31 1
  10    5    6 ar
  11    5   10 ar
  12    6    7 ar
  13    6   32 1
  14    7    8 ar
  15    8    9 ar
  16    8   14 ar
  17    9   10 ar
  18    9   11 ar
  19   11   12 ar
  20   11   33 1
  21   12   13 ar
  22   12   16 1
  23   13   14 ar
  24   13   34 1
  25   14   35 1
  26   17   18 ar
  27   17   22 ar
  28   18   19 ar
  29   18   36 1
  30   19   20 ar
  31   19   37 1
  32   20   21 ar
  33   20   23 1
  34   21   22 ar
  35   21   38 1
  36   22   39 1
  37   23   24 1
  38   23   40 1
  39   23   41 1
  40   24   25 ar
  41   24   29 ar
  42   25   26 ar
  43   25   42 1
  44   26   27 ar
  45   26   43 1
  46   27   28 ar
  47   27   44 1
  48   28   29 ar
  49   28   45 1
  50   29   46 1

#	End of record

