#	Name: ASD03430457
#	Creating user name:	WinNT
#	Creation time:	15. 06. 2019 20:41

#	Modifying user name:	WinNT
#	Modification time:	15. 06. 2019 20:41

#	Program:	/corina/corina34_cracker 3.40 0067  02.08.2006

@<TRIPOS>MOLECULE
ASD03430457
  52   57    0    0    0
SMALL
NO_CHARGES


@<TRIPOS>ATOM
   1 N1            -0.0161     1.3394     0.0094 N.am    
   2 C2             0.0021    -0.0041     0.0020 C.2     
   3 C3             1.4546    -0.4302    -0.0141 C.3     
   4 C4             2.2206     0.8729    -0.0140 C.ar    
   5 C5             3.5664     1.1670    -0.0242 C.ar    
   6 C6             3.9878     2.4889    -0.0199 C.ar    
   7 C7             3.0467     3.5123    -0.0085 C.ar    
   8 C8             1.6949     3.2119     0.0022 C.ar    
   9 C9             1.2702     1.8854     0.0001 C.ar    
  10 O10            5.3208     2.7658    -0.0224 O.3     
  11 O11            3.4392     4.8163    -0.0116 O.3     
  12 C12            4.7964     5.0809     0.3587 C.3     
  13 C13            5.7010     4.0954    -0.3934 C.3     
  14 O14           -0.9638    -0.7377     0.0076 O.2     
  15 C15           -1.2432     2.1397     0.0198 C.3     
  16 O16           -2.4669     1.6334     2.1850 O.3     
  17 C17           -1.6566     2.4069     1.4441 C.2     
  18 C18           -1.2764     3.4603     2.1892 C.2     
  19 C19           -1.8937     3.3126     3.4525 C.2     
  20 C20           -2.6142     2.1777     3.4039 C.2     
  21 C21           -3.4457     1.6130     4.5267 C.3     
  22 F22           -4.7473     2.1191     4.4433 F       
  23 F23           -3.4804     0.2181     4.4253 F       
  24 F24           -2.8814     1.9774     5.7539 F       
  25 O25            2.6345    -3.2591     4.7170 O.3     
  26 C26            1.9120    -2.5151     5.7126 C.3     
  27 C27            1.8034    -1.1085     5.0778 C.3     
  28 C28            1.9014    -1.4245     3.5977 C.ar    
  29 C29            2.3947    -2.7194     3.4904 C.ar    
  30 C30            2.5718    -3.2694     2.2245 C.ar    
  31 C31            2.2667    -2.5296     1.0947 C.ar    
  32 C32            1.7822    -1.2352     1.2170 C.ar    
  33 C33            1.6017    -0.6868     2.4737 C.ar    
  34 O34            2.4429    -3.0728    -0.1385 O.3     
  35 H35            1.6746    -1.0024    -0.9153 H       
  36 H36            4.2935     0.3686    -0.0353 H       
  37 H37            0.9668     4.0096     0.0131 H       
  38 H38            5.0593     6.1029     0.0856 H       
  39 H39            4.9176     4.9444     1.4333 H       
  40 H40            6.7418     4.2698    -0.1204 H       
  41 H41            5.5752     4.2274    -1.4680 H       
  42 H42           -1.0640     3.0862    -0.4902 H       
  43 H43           -2.0363     1.5953    -0.4928 H       
  44 H44           -0.6242     4.2643     1.8816 H       
  45 H45           -1.8037     3.9822     4.2951 H       
  46 H46            0.9227    -2.9439     5.8726 H       
  47 H47            2.4723    -2.4750     6.6467 H       
  48 H48            0.8448    -0.6470     5.3150 H       
  49 H49            2.6296    -0.4727     5.3960 H       
  50 H50            2.9484    -4.2766     2.1230 H       
  51 H51            1.2248     0.3203     2.5740 H       
  52 H52            1.6675    -3.5416    -0.4762 H       
@<TRIPOS>BOND
   1    1    2 am
   2    1    9 1
   3    1   15 1
   4    2    3 1
   5    2   14 2
   6    3    4 1
   7    3   32 1
   8    3   35 1
   9    4    5 ar
  10    4    9 ar
  11    5    6 ar
  12    5   36 1
  13    6    7 ar
  14    6   10 1
  15    7    8 ar
  16    7   11 1
  17    8    9 ar
  18    8   37 1
  19   10   13 1
  20   11   12 1
  21   12   13 1
  22   12   38 1
  23   12   39 1
  24   13   40 1
  25   13   41 1
  26   15   17 1
  27   15   42 1
  28   15   43 1
  29   16   17 1
  30   16   20 1
  31   17   18 2
  32   18   19 1
  33   18   44 1
  34   19   20 2
  35   19   45 1
  36   20   21 1
  37   21   22 1
  38   21   23 1
  39   21   24 1
  40   25   26 1
  41   25   29 1
  42   26   27 1
  43   26   46 1
  44   26   47 1
  45   27   28 1
  46   27   48 1
  47   27   49 1
  48   28   29 ar
  49   28   33 ar
  50   29   30 ar
  51   30   31 ar
  52   30   50 1
  53   31   32 ar
  54   31   34 1
  55   32   33 ar
  56   33   51 1
  57   34   52 1

#	End of record

