#	Name: ASD03430022
#	Creating user name:	WinNT
#	Creation time:	15. 06. 2019 20:40

#	Modifying user name:	WinNT
#	Modification time:	15. 06. 2019 20:40

#	Program:	/corina/corina34_cracker 3.40 0067  02.08.2006

@<TRIPOS>MOLECULE
ASD03430022
  56   61    0    0    0
SMALL
NO_CHARGES


@<TRIPOS>ATOM
   1 C1            -0.0167     1.3799     0.0096 C.ar    
   2 C2             0.0021    -0.0041     0.0020 C.ar    
   3 C3             1.2035    -0.6800    -0.0138 C.ar    
   4 C4             2.4083     0.0167    -0.0091 C.ar    
   5 C5             2.3825     1.4082    -0.0064 C.ar    
   6 C6             1.1781     2.0840     0.0020 C.ar    
   7 O7             3.4722    -0.8356     0.0057 O.3     
   8 C8             1.5543    -2.1432    -0.0522 C.3     
   9 C9             3.0423    -2.1397    -0.4294 C.3     
  10 C10            0.4280    -3.8679     0.9861 C.ar    
  11 C11            1.3111    -2.8260     1.2605 C.ar    
  12 C12            0.7281    -2.8991    -1.0533 C.2     
  13 N13            0.1075    -3.8835    -0.3734 N.am    
  14 O14            0.6374    -2.6688    -2.2406 O.2     
  15 C15            1.7659    -2.6142     2.5426 C.ar    
  16 C16            1.3481    -3.4394     3.5719 C.ar    
  17 C17            0.4730    -4.4777     3.3108 C.ar    
  18 C18            0.0135    -4.6935     2.0278 C.ar    
  19 C19           -0.7976    -4.8573    -0.9889 C.3     
  20 F20           -1.1942     2.0422     0.0188 F       
  21 F21            1.1638     3.4350     0.0028 F       
  22 C22           -2.2076    -4.3267    -0.9506 C.ar    
  23 C23           -2.6865    -3.5642    -2.0001 C.ar    
  24 C24           -3.9782    -3.0765    -1.9682 C.ar    
  25 C25           -4.7965    -3.3526    -0.8802 C.ar    
  26 C26           -4.3122    -4.1189     0.1724 C.ar    
  27 C27           -3.0214    -4.6083     0.1314 C.ar    
  28 N28           -6.1032    -2.8605    -0.8444 N.pl3   
  29 C29           -6.9648    -3.1527     0.3038 C.3     
  30 C30           -8.0525    -2.0683     0.4472 C.3     
  31 C31           -9.3917    -2.8201     0.2906 C.3     
  32 N32           -9.0790    -4.2236     0.6640 N.3     
  33 C33           -7.7384    -4.4686     0.0726 C.3     
  34 H34           -0.9265    -0.5556     0.0089 H       
  35 H35            3.3094     1.9625    -0.0108 H       
  36 H36            3.1687    -2.2494    -1.5065 H       
  37 H37            3.5791    -2.9228     0.1061 H       
  38 H38            2.4492    -1.8028     2.7453 H       
  39 H39            1.7053    -3.2730     4.5775 H       
  40 H40            0.1477    -5.1220     4.1142 H       
  41 H41           -0.6703    -5.5058     1.8308 H       
  42 H42           -0.5007    -5.0255    -2.0241 H       
  43 H43           -0.7480    -5.7973    -0.4393 H       
  44 H44           -2.0497    -3.3496    -2.8455 H       
  45 H45           -4.3515    -2.4807    -2.7880 H       
  46 H46           -4.9459    -4.3354     1.0198 H       
  47 H47           -2.6444    -5.2044     0.9493 H       
  48 H48           -6.4402    -2.3253    -1.5799 H       
  49 H49           -6.3709    -3.2162     1.2156 H       
  50 H50           -7.9936    -1.6006     1.4300 H       
  51 H51           -7.9453    -1.3185    -0.3367 H       
  52 H52          -10.1415    -2.4055     0.9644 H       
  53 H53           -9.7376    -2.7695    -0.7418 H       
  54 H54           -9.0577    -4.3348     1.6666 H       
  55 H55           -7.8255    -4.6759    -0.9940 H       
  56 H56           -7.2433    -5.2952     0.5822 H       
@<TRIPOS>BOND
   1    1    2 ar
   2    1    6 ar
   3    1   20 1
   4    2    3 ar
   5    2   34 1
   6    3    4 ar
   7    3    8 1
   8    4    5 ar
   9    4    7 1
  10    5    6 ar
  11    5   35 1
  12    6   21 1
  13    7    9 1
  14    8    9 1
  15    8   11 1
  16    8   12 1
  17    9   36 1
  18    9   37 1
  19   10   11 ar
  20   10   13 1
  21   10   18 ar
  22   11   15 ar
  23   12   13 am
  24   12   14 2
  25   13   19 1
  26   15   16 ar
  27   15   38 1
  28   16   17 ar
  29   16   39 1
  30   17   18 ar
  31   17   40 1
  32   18   41 1
  33   19   22 1
  34   19   42 1
  35   19   43 1
  36   22   23 ar
  37   22   27 ar
  38   23   24 ar
  39   23   44 1
  40   24   25 ar
  41   24   45 1
  42   25   26 ar
  43   25   28 1
  44   26   27 ar
  45   26   46 1
  46   27   47 1
  47   28   29 1
  48   28   48 1
  49   29   30 1
  50   29   33 1
  51   29   49 1
  52   30   31 1
  53   30   50 1
  54   30   51 1
  55   31   32 1
  56   31   52 1
  57   31   53 1
  58   32   33 1
  59   32   54 1
  60   33   55 1
  61   33   56 1

#	End of record

