#	Name: ASD07300369
#	Creating user name:	WinNT
#	Creation time:	15. 06. 2019 21:09

#	Modifying user name:	WinNT
#	Modification time:	15. 06. 2019 21:09

#	Program:	/corina/corina34_cracker 3.40 0067  02.08.2006

@<TRIPOS>MOLECULE
ASD07300369
  33   35    0    0    0
SMALL
NO_CHARGES


@<TRIPOS>ATOM
   1 C1            -0.0169     1.3962     0.0097 C.ar    
   2 C2             0.0021    -0.0041     0.0020 C.ar    
   3 C3             1.2147    -0.6693    -0.0134 C.ar    
   4 C4             2.3890     0.0972    -0.0208 C.ar    
   5 C5             2.2886     1.4904    -0.0124 C.ar    
   6 N6             1.1146     2.0849     0.0026 N.ar    
   7 C7            -2.1128     0.6644     0.0347 C.2     
   8 N8            -1.3519     1.7743     0.0301 N.am    
   9 N9            -1.3246    -0.4272     0.0132 N.am    
  10 C10            3.6719    -0.5389    -0.0364 C.1     
  11 N11            4.6896    -1.0435    -0.0487 N.1     
  12 O12           -3.3293     0.6495     0.0518 O.2     
  13 C13           -1.8288     3.0936     0.0444 C.ar    
  14 C14           -3.1952     3.3379     0.0645 C.ar    
  15 C15           -3.6641     4.6366     0.0790 C.ar    
  16 C16           -2.7699     5.6972     0.0736 C.ar    
  17 C17           -1.4043     5.4537     0.0531 C.ar    
  18 C18           -0.9343     4.1553     0.0443 C.ar    
  19 O19           -3.2320     6.9758     0.0879 O.3     
  20 C20           -1.7830    -1.8186     0.0104 C.3     
  21 C21           -1.9280    -2.3108     1.4518 C.3     
  22 H22            1.2560    -1.7485    -0.0193 H       
  23 H23            3.1878     2.0886    -0.0176 H       
  24 H24           -3.8915     2.5122     0.0683 H       
  25 H25           -4.7271     4.8267     0.0942 H       
  26 H26           -0.7086     6.2798     0.0482 H       
  27 H27            0.1289     3.9658     0.0333 H       
  28 H28           -3.3538     7.3401     0.9753 H       
  29 H29           -2.7472    -1.8825    -0.4941 H       
  30 H30           -1.0567    -2.4395    -0.5142 H       
  31 H31           -0.9639    -2.2469     1.9562 H       
  32 H32           -2.6543    -1.6899     1.9764 H       
  33 H33           -2.2692    -3.3460     1.4497 H       
@<TRIPOS>BOND
   1    1    2 ar
   2    1    6 ar
   3    1    8 1
   4    2    3 ar
   5    2    9 1
   6    3    4 ar
   7    3   22 1
   8    4    5 ar
   9    4   10 1
  10    5    6 ar
  11    5   23 1
  12    7    8 am
  13    7    9 am
  14    7   12 2
  15    8   13 1
  16    9   20 1
  17   10   11 3
  18   13   14 ar
  19   13   18 ar
  20   14   15 ar
  21   14   24 1
  22   15   16 ar
  23   15   25 1
  24   16   17 ar
  25   16   19 1
  26   17   18 ar
  27   17   26 1
  28   18   27 1
  29   19   28 1
  30   20   21 1
  31   20   29 1
  32   20   30 1
  33   21   31 1
  34   21   32 1
  35   21   33 1

#	End of record

