#	Name: ASD03540577
#	Creating user name:	WinNT
#	Creation time:	15. 06. 2019 20:43

#	Modifying user name:	WinNT
#	Modification time:	15. 06. 2019 20:43

#	Program:	/corina/corina34_cracker 3.40 0067  02.08.2006

@<TRIPOS>MOLECULE
ASD03540577
  49   53    0    0    0
SMALL
NO_CHARGES


@<TRIPOS>ATOM
   1 N1            -0.0164     1.3608     0.0095 N.pl3   
   2 C2             0.0021    -0.0041     0.0020 C.2     
   3 N3             1.1903    -0.7096    -0.0132 N.am    
   4 C4             2.3778    -0.0689    -0.0205 C.2     
   5 C5             2.3905     1.4059    -0.0126 C.ar    
   6 C6             3.5856     2.1159    -0.0186 C.ar    
   7 C7             3.5564     3.5090    -0.0098 C.ar    
   8 C8             2.3300     4.1837     0.0049 C.ar    
   9 C9             1.1468     3.4801     0.0112 C.ar    
  10 C10            1.1624     2.0911     0.0022 C.ar    
  11 N11           -2.0330     0.6196     0.0248 N.2     
  12 N12           -1.2514    -0.4005     0.0119 N.2     
  13 C13           -1.3340     1.7207     0.0296 C.2     
  14 C14            4.8199     4.2740    -0.0155 C.2     
  15 O15            5.8851     3.6882    -0.0278 O.2     
  16 N16            4.7919     5.6214    -0.0070 N.am    
  17 C17            6.0450     6.3802    -0.0127 C.3     
  18 C18            5.3236     9.8963     1.1667 C.ar    
  19 C19            5.6045     8.5434     1.1953 C.ar    
  20 C20            5.7389     7.8558    -0.0011 C.ar    
  21 C21            5.5854     8.5581    -1.1867 C.ar    
  22 C22            5.3055     9.9105    -1.1369 C.ar    
  23 N23            5.1841    10.5321     0.0198 N.ar    
  24 O24            3.4195    -0.6967    -0.0330 O.2     
  25 C25            1.1602    -2.1743    -0.0209 C.3     
  26 C26            1.1364    -2.6687    -1.4443 C.ar    
  27 C27            2.3223    -2.9201    -2.1086 C.ar    
  28 C28            2.3004    -3.3736    -3.4143 C.ar    
  29 C29            1.0926    -3.5762    -4.0554 C.ar    
  30 C30           -0.0933    -3.3257    -3.3908 C.ar    
  31 C31           -0.0715    -2.8763    -2.0837 C.ar    
  32 H32            4.5298     1.5916    -0.0295 H       
  33 H33            2.3119     5.2635     0.0116 H       
  34 H34            0.2051     4.0088     0.0233 H       
  35 H35           -1.7237     2.7278     0.0403 H       
  36 H36            3.9419     6.0888     0.0028 H       
  37 H37            6.6292     6.1234     0.8710 H       
  38 H38            6.6146     6.1343    -0.9089 H       
  39 H39            5.2129    10.4382     2.0943 H       
  40 H40            5.7179     8.0283     2.1378 H       
  41 H41            5.6837     8.0546    -2.1371 H       
  42 H42            5.1845    10.4648    -2.0559 H       
  43 H43            2.0474    -2.5586     0.4824 H       
  44 H44            0.2679    -2.5221     0.4996 H       
  45 H45            3.2659    -2.7618    -1.6077 H       
  46 H46            3.2269    -3.5693    -3.9335 H       
  47 H47            1.0755    -3.9298    -5.0757 H       
  48 H48           -1.0370    -3.4837    -3.8918 H       
  49 H49           -0.9981    -2.6842    -1.5632 H       
@<TRIPOS>BOND
   1    1    2 1
   2    1   10 1
   3    1   13 1
   4    2    3 1
   5    2   12 2
   6    3    4 am
   7    3   25 1
   8    4    5 1
   9    4   24 2
  10    5    6 ar
  11    5   10 ar
  12    6    7 ar
  13    6   32 1
  14    7    8 ar
  15    7   14 1
  16    8    9 ar
  17    8   33 1
  18    9   10 ar
  19    9   34 1
  20   11   12 1
  21   11   13 2
  22   13   35 1
  23   14   15 2
  24   14   16 am
  25   16   17 1
  26   16   36 1
  27   17   20 1
  28   17   37 1
  29   17   38 1
  30   18   19 ar
  31   18   23 ar
  32   18   39 1
  33   19   20 ar
  34   19   40 1
  35   20   21 ar
  36   21   22 ar
  37   21   41 1
  38   22   23 ar
  39   22   42 1
  40   25   26 1
  41   25   43 1
  42   25   44 1
  43   26   27 ar
  44   26   31 ar
  45   27   28 ar
  46   27   45 1
  47   28   29 ar
  48   28   46 1
  49   29   30 ar
  50   29   47 1
  51   30   31 ar
  52   30   48 1
  53   31   49 1

#	End of record

