#	Name: ASD01870288
#	Creating user name:	WinNT
#	Creation time:	15. 06. 2019 19:38

#	Modifying user name:	WinNT
#	Modification time:	15. 06. 2019 19:38

#	Program:	/corina/corina34_cracker 3.40 0067  02.08.2006

@<TRIPOS>MOLECULE
ASD01870288
  56   60    0    0    0
SMALL
NO_CHARGES


@<TRIPOS>ATOM
   1 C1            -0.0184     1.5028     0.0103 C.2     
   2 C2             0.0021    -0.0041     0.0020 C.3     
   3 O3             1.0191     2.1207     0.0037 O.2     
   4 N4            -1.9597    -2.5293    -0.9176 N.ar    
   5 C5            -2.4390    -3.3773    -1.7936 C.ar    
   6 C6            -2.3704    -4.7554    -1.5936 C.ar    
   7 C7            -1.7918    -5.2515    -0.4605 C.ar    
   8 C8            -1.2775    -4.3377     0.4790 C.ar    
   9 C9            -0.6681    -4.7777     1.6659 C.ar    
  10 C10           -0.1790    -3.8770     2.5567 C.ar    
  11 C11           -0.2719    -2.4945     2.3093 C.ar    
  12 C12           -0.8688    -2.0377     1.1454 C.ar    
  13 C13           -1.3804    -2.9484     0.2128 C.ar    
  14 N14           -0.1389    -0.1858     2.4485 N.am    
  15 C15            0.1694    -1.3233     3.0946 C.2     
  16 C16           -0.8070    -0.5316     1.1886 C.3     
  17 O17            0.7304    -1.3804     4.1713 O.2     
  18 C18            0.1444     1.1712     2.9224 C.3     
  19 C19            1.6538     1.3436     3.1030 C.3     
  20 C20            1.9497     2.7608     3.5979 C.3     
  21 C21            1.2464     2.9905     4.9371 C.3     
  22 C22           -0.2631     2.8181     4.7566 C.3     
  23 C23           -0.5590     1.4009     4.2616 C.3     
  24 O24            2.3108     1.1291     1.8522 O.3     
  25 C25           -0.5572    -6.2532     1.9514 C.3     
  26 C26            1.8855    -6.8204     1.9531 C.ar    
  27 C27            0.6769    -6.8027     1.2835 C.ar    
  28 C28            0.6133    -7.2973    -0.0105 C.ar    
  29 C29            1.7730    -7.7934    -0.5852 C.ar    
  30 C30            2.9472    -7.7787     0.1462 C.ar    
  31 N31            2.9699    -7.3004     1.3761 N.ar    
  32 Cl32           4.4070    -8.3969    -0.5613 Cl      
  33 H33           -0.9609     2.0300     0.0176 H       
  34 H34           -0.4361    -0.3683    -0.9272 H       
  35 H35            1.0315    -0.3539     0.0799 H       
  36 H36           -2.8998    -2.9990    -2.6942 H       
  37 H37           -2.7748    -5.4299    -2.3338 H       
  38 H38           -1.7306    -6.3161    -0.2895 H       
  39 H39            0.2873    -4.2259     3.4663 H       
  40 H40           -1.8139    -0.1145     1.1704 H       
  41 H41           -0.2192     1.8944     2.1924 H       
  42 H42            2.0174     0.6205     3.8331 H       
  43 H43            3.0251     2.8837     3.7266 H       
  44 H44            1.5861     3.4840     2.8679 H       
  45 H45            1.6099     2.2674     5.6672 H       
  46 H46            1.4571     4.0002     5.2898 H       
  47 H47           -0.7642     2.9818     5.7107 H       
  48 H48           -0.6267     3.5412     4.0265 H       
  49 H49           -1.6344     1.2781     4.1330 H       
  50 H50           -0.1954     0.6778     4.9917 H       
  51 H51            3.2724     1.2225     1.8919 H       
  52 H52           -0.4885    -6.4108     3.0278 H       
  53 H53           -1.4382    -6.7653     1.5647 H       
  54 H54            1.9437    -6.4328     2.9595 H       
  55 H55           -0.3180    -7.2962    -0.5574 H       
  56 H56            1.7600    -8.1866    -1.5910 H       
@<TRIPOS>BOND
   1    1    2 1
   2    1    3 2
   3    1   33 1
   4    2   16 1
   5    2   34 1
   6    2   35 1
   7    4    5 ar
   8    4   13 ar
   9    5    6 ar
  10    5   36 1
  11    6    7 ar
  12    6   37 1
  13    7    8 ar
  14    7   38 1
  15    8    9 ar
  16    8   13 ar
  17    9   10 ar
  18    9   25 1
  19   10   11 ar
  20   10   39 1
  21   11   12 ar
  22   11   15 1
  23   12   13 ar
  24   12   16 1
  25   14   15 am
  26   14   16 1
  27   14   18 1
  28   15   17 2
  29   16   40 1
  30   18   19 1
  31   18   23 1
  32   18   41 1
  33   19   20 1
  34   19   24 1
  35   19   42 1
  36   20   21 1
  37   20   43 1
  38   20   44 1
  39   21   22 1
  40   21   45 1
  41   21   46 1
  42   22   23 1
  43   22   47 1
  44   22   48 1
  45   23   49 1
  46   23   50 1
  47   24   51 1
  48   25   27 1
  49   25   52 1
  50   25   53 1
  51   26   27 ar
  52   26   31 ar
  53   26   54 1
  54   27   28 ar
  55   28   29 ar
  56   28   55 1
  57   29   30 ar
  58   29   56 1
  59   30   31 ar
  60   30   32 1

#	End of record

