#	Name: ASD01820123
#	Creating user name:	WinNT
#	Creation time:	15. 06. 2019 19:36

#	Modifying user name:	WinNT
#	Modification time:	15. 06. 2019 19:36

#	Program:	/corina/corina34_cracker 3.40 0067  02.08.2006

@<TRIPOS>MOLECULE
ASD01820123
  58   62    0    0    0
SMALL
NO_CHARGES


@<TRIPOS>ATOM
   1 O1            -0.0373     1.4559    -0.0060 O.3     
   2 C2            -0.0368     0.0270    -0.0124 C.3     
   3 H3             0.4872    -0.3547     0.8639 H       
   4 C4             0.6218    -0.5032    -1.3041 C.3     
   5 N5            -0.1740    -1.7050    -1.6639 N.3     
   6 C6            -1.5762    -1.3182    -1.3620 C.3     
   7 C7            -1.4828    -0.5092    -0.0477 C.3     
   8 H8            -2.1929     0.3177    -0.0602 H       
   9 O9            -1.7257    -1.3564     1.0771 O.3     
  10 C10           -0.0229    -2.0173    -3.0054 C.ar    
  11 N11            0.7619    -1.2668    -3.7599 N.ar    
  12 C12            0.9395    -1.5252    -5.0501 C.ar    
  13 N13            1.7633    -0.7264    -5.8119 N.pl3   
  14 C14            1.9791    -0.9406    -7.1188 C.2     
  15 C15            1.3882    -1.9836    -7.8002 C.2     
  16 C16            1.6503    -2.1857    -9.2337 C.2     
  17 O17            2.3115    -1.3729    -9.8516 O.2     
  18 N18            1.1577    -3.2713    -9.8624 N.am    
  19 C19            1.3164    -3.4134   -11.3118 C.3     
  20 H20            2.2753    -2.9933   -11.6152 H       
  21 C21            1.2673    -4.8958   -11.6874 C.3     
  22 C22            0.1153    -5.3605   -12.5806 C.3     
  23 C23            1.5327    -5.2635   -13.1486 C.3     
  24 C24            0.1852    -2.6691   -12.0241 C.3     
  25 F25            0.2301    -1.3137   -11.6807 F       
  26 F26            0.3368    -2.8048   -13.4082 F       
  27 F27           -1.0455    -3.2083   -11.6347 F       
  28 C28            0.4905    -2.8918    -7.0671 C.2     
  29 O29           -0.0572    -3.8287    -7.6224 O.2     
  30 C30            0.2819    -2.6202    -5.6367 C.ar    
  31 C31           -0.5541    -3.4302    -4.8578 C.ar    
  32 C32           -0.6992    -3.1231    -3.5311 C.ar    
  33 F33           -1.4915    -3.8780    -2.7389 F       
  34 C34            2.4037     0.3572    -5.1954 C.ar    
  35 C35            1.7839     1.6011    -5.1547 C.ar    
  36 F36            0.5631     1.7668    -5.7091 F       
  37 C37            2.4185     2.6686    -4.5456 C.ar    
  38 C38            3.6694     2.4987    -3.9769 C.ar    
  39 F39            4.2871     3.5427    -3.3821 F       
  40 C40            4.2885     1.2605    -4.0164 C.ar    
  41 C41            3.6565     0.1890    -4.6187 C.ar    
  42 Cl42           4.4304    -1.3644    -4.6606 Cl      
  43 H43            0.8460     1.8496    -0.0061 H       
  44 H44            0.5615     0.2436    -2.0957 H       
  45 H45            1.6601    -0.7769    -1.1167 H       
  46 H46           -1.9805    -0.6989    -2.1627 H       
  47 H47           -2.1928    -2.2054    -1.2182 H       
  48 H48           -2.6199    -1.7231     1.1075 H       
  49 H49            2.6375    -0.2734    -7.6552 H       
  50 H50            0.6981    -3.9586    -9.3551 H       
  51 H51            1.6216    -5.5866   -10.9222 H       
  52 H52           -0.2886    -6.3572   -12.4031 H       
  53 H53           -0.6076    -4.6102   -12.9006 H       
  54 H54            1.7422    -4.4494   -13.8424 H       
  55 H55            2.0611    -6.1964   -13.3449 H       
  56 H56           -1.0679    -4.2756    -5.2909 H       
  57 H57            1.9380     3.6353    -4.5138 H       
  58 H58            5.2644     1.1310    -3.5724 H       
@<TRIPOS>BOND
   1    1    2 1
   2    1   43 1
   3    2    3 1
   4    2    7 1
   5    2    4 1
   6    4    5 1
   7    4   44 1
   8    4   45 1
   9    5    6 1
  10    5   10 1
  11    6    7 1
  12    6   46 1
  13    6   47 1
  14    7    8 1
  15    7    9 1
  16    9   48 1
  17   10   32 ar
  18   10   11 ar
  19   11   12 ar
  20   12   30 ar
  21   12   13 1
  22   13   14 1
  23   13   34 1
  24   14   15 2
  25   14   49 1
  26   15   16 1
  27   15   28 1
  28   16   17 2
  29   16   18 am
  30   18   19 1
  31   18   50 1
  32   19   20 1
  33   19   21 1
  34   19   24 1
  35   21   23 1
  36   21   22 1
  37   21   51 1
  38   22   23 1
  39   22   52 1
  40   22   53 1
  41   23   54 1
  42   23   55 1
  43   24   25 1
  44   24   26 1
  45   24   27 1
  46   28   29 2
  47   28   30 1
  48   30   31 ar
  49   31   32 ar
  50   31   56 1
  51   32   33 1
  52   34   41 ar
  53   34   35 ar
  54   35   36 1
  55   35   37 ar
  56   37   38 ar
  57   37   57 1
  58   38   39 1
  59   38   40 ar
  60   40   41 ar
  61   40   58 1
  62   41   42 1

#	End of record

