#	Name: ASD00960296
#	Creating user name:	WinNT
#	Creation time:	15. 06. 2019 18:53

#	Modifying user name:	WinNT
#	Modification time:	15. 06. 2019 18:53

#	Program:	/corina/corina34_cracker 3.40 0067  02.08.2006

@<TRIPOS>MOLECULE
ASD00960296
  48   50    0    0    0
SMALL
NO_CHARGES


@<TRIPOS>ATOM
   1 C1            -0.0171     1.4079     0.0098 C.2     
   2 N2             2.0998     0.7213    -0.0198 N.pl3   
   3 C3             1.3153    -0.3882    -0.0092 C.2     
   4 C4             0.0021    -0.0041     0.0020 C.2     
   5 N5             3.4998     0.6280    -0.0556 N.2     
   6 C6             4.0365    -0.5300    -0.3000 C.2     
   7 N7             3.2736    -1.6454    -0.5670 N.pl3   
   8 C8             1.9192    -1.7739     0.0008 C.3     
   9 N9             1.9966    -2.2802     1.3776 N.3     
  10 C10           -1.1380    -0.8706     0.0057 C.1     
  11 C11           -2.0727    -1.5810     0.0086 C.1     
  12 C12            1.2999     1.8303    -0.0005 C.2     
  13 Si13          -3.5853    -2.7307     0.0135 Si      
  14 C14           -5.1425    -1.7081     0.0296 C.3     
  15 C15           -3.5591    -3.7979    -1.5133 C.3     
  16 C16           -3.5377    -3.8133     1.5289 C.3     
  17 C17            1.7574     3.2210     0.0077 C.2     
  18 O18            0.9469     4.1278     0.0256 O.2     
  19 O19            3.0779     3.4967    -0.0045 O.3     
  20 C20            3.4588     4.8979     0.0047 C.3     
  21 C21            4.9615     5.0100    -0.0112 C.ar    
  22 C22            5.6373     5.0729    -1.2155 C.ar    
  23 C23            7.0157     5.1757    -1.2300 C.ar    
  24 C24            7.7184     5.2160    -0.0403 C.ar    
  25 C25            7.0426     5.1540     1.1640 C.ar    
  26 C26            5.6639     5.0555     1.1786 C.ar    
  27 H27           -0.8939     2.0384     0.0176 H       
  28 H28            5.1127    -0.6205    -0.2939 H       
  29 H29            3.6295    -2.3497    -1.1311 H       
  30 H30            1.3195    -2.4465    -0.6125 H       
  31 H31            2.4410    -3.1856     1.4055 H       
  32 H32            2.4740    -1.6244     1.9777 H       
  33 H33           -5.1704    -1.0746    -0.8570 H       
  34 H34           -6.0103    -2.3676     0.0324 H       
  35 H35           -5.1579    -1.0836     0.9229 H       
  36 H36           -2.6480    -4.3962    -1.5227 H       
  37 H37           -4.4269    -4.4575    -1.5105 H       
  38 H38           -3.5870    -3.1645    -2.3999 H       
  39 H39           -3.5530    -3.1889     2.4221 H       
  40 H40           -4.4055    -4.4729     1.5316 H       
  41 H41           -2.6266    -4.4116     1.5194 H       
  42 H42            3.0483     5.3918    -0.8760 H       
  43 H43            3.0684     5.3746     0.9038 H       
  44 H44            5.0883     5.0415    -2.1450 H       
  45 H45            7.5437     5.2242    -2.1709 H       
  46 H46            8.7954     5.2956    -0.0517 H       
  47 H47            7.5917     5.1851     2.0935 H       
  48 H48            5.1356     5.0108     2.1196 H       
@<TRIPOS>BOND
   1    1    4 1
   2    1   12 2
   3    1   27 1
   4    2    3 1
   5    2    5 1
   6    2   12 1
   7    3    4 2
   8    3    8 1
   9    4   10 1
  10    5    6 2
  11    6    7 1
  12    6   28 1
  13    7    8 1
  14    7   29 1
  15    8    9 1
  16    8   30 1
  17    9   31 1
  18    9   32 1
  19   10   11 3
  20   11   13 1
  21   12   17 1
  22   13   14 1
  23   13   15 1
  24   13   16 1
  25   14   33 1
  26   14   34 1
  27   14   35 1
  28   15   36 1
  29   15   37 1
  30   15   38 1
  31   16   39 1
  32   16   40 1
  33   16   41 1
  34   17   18 2
  35   17   19 1
  36   19   20 1
  37   20   21 1
  38   20   42 1
  39   20   43 1
  40   21   22 ar
  41   21   26 ar
  42   22   23 ar
  43   22   44 1
  44   23   24 ar
  45   23   45 1
  46   24   25 ar
  47   24   46 1
  48   25   26 ar
  49   25   47 1
  50   26   48 1

#	End of record

