#	Name: ASD05430073
#	Creating user name:	WinNT
#	Creation time:	15. 06. 2019 20:59

#	Modifying user name:	WinNT
#	Modification time:	15. 06. 2019 20:59

#	Program:	/corina/corina34_cracker 3.40 0067  02.08.2006

@<TRIPOS>MOLECULE
ASD05430073
  66   72    0    0    0
SMALL
NO_CHARGES


@<TRIPOS>ATOM
   1 C1             0.0679     1.1670     0.4371 C.ar    
   2 C2             0.0167    -0.0118    -0.3163 C.ar    
   3 C3             1.1469    -0.4778    -0.9712 C.ar    
   4 C4             2.3364     0.2130    -0.8895 C.ar    
   5 C5             2.4024     1.3910    -0.1361 C.ar    
   6 C6             1.2656     1.8547     0.5241 C.ar    
   7 C7             4.8718    -0.0334     0.1691 C.3     
   8 C8             4.8375     1.4731     0.0342 C.2     
   9 C9             3.6675     2.1373    -0.0415 C.2     
  10 C10            6.2173    -0.4618     0.7619 C.3     
  11 C11            6.9117     0.5640     1.6648 C.3     
  12 N12            7.1065     1.8020     0.9070 N.pl3   
  13 C13            6.1208     2.1904    -0.0113 C.2     
  14 N14           -1.1860    -0.7268    -0.4092 N.pl3   
  15 C15           -1.7799    -1.1763    -1.5599 C.2     
  16 C16           -2.9110    -1.8092    -1.1937 C.2     
  17 N17           -3.0096    -1.7505     0.1426 N.2     
  18 C18           -1.9793    -1.1098     0.6245 C.2     
  19 C19           -3.8955    -2.4690    -2.1244 C.3     
  20 C20           -0.3203     2.6985     2.0846 C.3     
  21 O21           -0.9169     1.7995     1.1341 O.3     
  22 C22            8.2821     2.6487     1.1093 C.3     
  23 C23            8.7597     3.1656    -0.2523 C.3     
  24 N24            7.6186     3.7052    -0.9957 N.pl3   
  25 N25            6.3515     3.1221    -0.8831 N.2     
  26 C26            7.9190     3.8142     1.9929 C.ar    
  27 C27            8.8767     4.7546     2.3240 C.ar    
  28 C28            6.6270     3.9452     2.4671 C.ar    
  29 C29            6.2927     5.0141     3.2767 C.ar    
  30 C30            7.2523     5.9538     3.6133 C.ar    
  31 C31            8.5447     5.8241     3.1338 C.ar    
  32 F32            6.9266     6.9992     4.4047 F       
  33 C33            6.3873    -1.9397     1.1218 C.3     
  34 C34            7.1105    -1.3606    -0.0958 C.3     
  35 C35            9.3958     1.8310     1.7666 C.3     
  36 C36            1.0256     3.0598     1.4126 C.3     
  37 H37            1.0944    -1.3887    -1.5490 H       
  38 H38            3.2130    -0.1526    -1.4035 H       
  39 H39            4.0652    -0.3578     0.8266 H       
  40 H40            4.7457    -0.4892    -0.8130 H       
  41 H41            3.6580     3.2172    -0.0326 H       
  42 H42            6.2895     0.7635     2.5372 H       
  43 H43            7.8786     0.1749     1.9839 H       
  44 H44           -1.4118    -1.0472    -2.5670 H       
  45 H45           -1.7930    -0.9109     1.6695 H       
  46 H46           -3.6136    -3.5116    -2.2718 H       
  47 H47           -4.8943    -2.4205    -1.6906 H       
  48 H48           -3.8907    -1.9523    -3.0841 H       
  49 H49           -0.9375     3.5873     2.2160 H       
  50 H50           -0.1540     2.1978     3.0383 H       
  51 H51            9.5007     3.9510    -0.1035 H       
  52 H52            9.2061     2.3464    -0.8160 H       
  53 H53            7.7426     4.4755    -1.5721 H       
  54 H54            9.8847     4.6533     1.9499 H       
  55 H55            5.8787     3.2122     2.2045 H       
  56 H56            5.2831     5.1167     3.6465 H       
  57 H57            9.2942     6.5563     3.3959 H       
  58 H58            6.9895    -2.1782     1.9984 H       
  59 H59            5.5424    -2.6031     0.9368 H       
  60 H60            6.7415    -1.6432    -1.0817 H       
  61 H61            8.1885    -1.2183    -0.0201 H       
  62 H62            9.6597     0.9925     1.1221 H       
  63 H63           10.2708     2.4634     1.9166 H       
  64 H64            9.0503     1.4545     2.7294 H       
  65 H65            1.8172     3.1601     2.1552 H       
  66 H66            0.9329     3.9692     0.8189 H       
@<TRIPOS>BOND
   1    1    2 ar
   2    1    6 ar
   3    1   21 1
   4    2    3 ar
   5    2   14 1
   6    3    4 ar
   7    3   37 1
   8    4    5 ar
   9    4   38 1
  10    5    6 ar
  11    5    9 1
  12    6   36 1
  13    7    8 1
  14    7   10 1
  15    7   39 1
  16    7   40 1
  17    8    9 2
  18    8   13 1
  19    9   41 1
  20   10   11 1
  21   10   33 1
  22   10   34 1
  23   11   12 1
  24   11   42 1
  25   11   43 1
  26   12   13 1
  27   12   22 1
  28   13   25 2
  29   14   15 1
  30   14   18 1
  31   15   16 2
  32   15   44 1
  33   16   17 1
  34   16   19 1
  35   17   18 2
  36   18   45 1
  37   19   46 1
  38   19   47 1
  39   19   48 1
  40   20   21 1
  41   20   36 1
  42   20   49 1
  43   20   50 1
  44   22   23 1
  45   22   26 1
  46   22   35 1
  47   23   24 1
  48   23   51 1
  49   23   52 1
  50   24   25 1
  51   24   53 1
  52   26   27 ar
  53   26   28 ar
  54   27   31 ar
  55   27   54 1
  56   28   29 ar
  57   28   55 1
  58   29   30 ar
  59   29   56 1
  60   30   31 ar
  61   30   32 1
  62   31   57 1
  63   33   34 1
  64   33   58 1
  65   33   59 1
  66   34   60 1
  67   34   61 1
  68   35   62 1
  69   35   63 1
  70   35   64 1
  71   36   65 1
  72   36   66 1

#	End of record

