#	Name: ASD01840334
#	Creating user name:	WinNT
#	Creation time:	15. 06. 2019 19:37

#	Modifying user name:	WinNT
#	Modification time:	15. 06. 2019 19:37

#	Program:	/corina/corina34_cracker 3.40 0067  02.08.2006

@<TRIPOS>MOLECULE
ASD01840334
  36   39    0    0    0
SMALL
NO_CHARGES


@<TRIPOS>ATOM
   1 C1            -0.0173     1.4248     0.0099 C.3     
   2 O2             0.0021    -0.0041     0.0020 O.3     
   3 C3            -1.1996    -0.6371     0.0101 C.ar    
   4 N4            -2.3203     0.0682     0.0190 N.ar    
   5 N5            -3.4775    -0.4791     0.0264 N.ar    
   6 C6            -3.6438    -1.8037     0.0257 C.ar    
   7 S7            -5.1158    -2.7617     0.0346 S.3     
   8 C8            -4.2364    -4.2795     0.0262 C.ar    
   9 C9            -4.7027    -5.6105     0.0275 C.ar    
  10 N10           -3.8209    -6.6002     0.0199 N.ar    
  11 C11           -2.5245    -6.3501     0.0112 C.ar    
  12 N12           -2.0477    -5.1295     0.0097 N.ar    
  13 C13           -2.8687    -4.0594     0.0170 C.ar    
  14 C14           -2.5236    -2.6328     0.0166 C.ar    
  15 C15           -1.2543    -2.0215     0.0032 C.ar    
  16 C16            0.0056    -2.8483    -0.0133 C.3     
  17 N17           -6.0624    -5.8797     0.0371 N.3     
  18 C18           -6.7108    -5.2903     1.2279 C.3     
  19 C19           -7.8431    -6.2822     1.5934 C.3     
  20 C20           -7.1787    -7.6474     1.2750 C.3     
  21 C21           -6.3134    -7.3326     0.0366 C.3     
  22 H22            1.0053     1.8021     0.0021 H       
  23 H23           -0.5445     1.7859    -0.8732 H       
  24 H24           -0.5275     1.7763     0.9067 H       
  25 H25           -1.8332    -7.1799     0.0056 H       
  26 H26            0.3191    -3.0532     1.0104 H       
  27 H27           -0.1839    -3.7890    -0.5304 H       
  28 H28            0.7927    -2.3008    -0.5317 H       
  29 H29           -5.9972    -5.2101     2.0479 H       
  30 H30           -7.1264    -4.3115     0.9883 H       
  31 H31           -8.0996    -6.2097     2.6503 H       
  32 H32           -8.7212    -6.1200     0.9681 H       
  33 H33           -6.5558    -7.9762     2.1069 H       
  34 H34           -7.9333    -8.3972     1.0373 H       
  35 H35           -6.8470    -7.6164    -0.8705 H       
  36 H36           -5.3683    -7.8722     0.0977 H       
@<TRIPOS>BOND
   1    1    2 1
   2    1   22 1
   3    1   23 1
   4    1   24 1
   5    2    3 1
   6    3   15 ar
   7    3    4 ar
   8    4    5 ar
   9    5    6 ar
  10    6   14 ar
  11    6    7 1
  12    7    8 1
  13    8   13 ar
  14    8    9 ar
  15    9   10 ar
  16    9   17 1
  17   10   11 ar
  18   11   12 ar
  19   11   25 1
  20   12   13 ar
  21   13   14 1
  22   14   15 ar
  23   15   16 1
  24   16   26 1
  25   16   27 1
  26   16   28 1
  27   17   21 1
  28   17   18 1
  29   18   19 1
  30   18   29 1
  31   18   30 1
  32   19   20 1
  33   19   31 1
  34   19   32 1
  35   20   21 1
  36   20   33 1
  37   20   34 1
  38   21   35 1
  39   21   36 1

#	End of record

