#	Name: ASD01912464
#	Creating user name:	WinNT
#	Creation time:	15. 06. 2019 19:59

#	Modifying user name:	WinNT
#	Modification time:	15. 06. 2019 19:59

#	Program:	/corina/corina34_cracker 3.40 0067  02.08.2006

@<TRIPOS>MOLECULE
ASD01912464
  38   39    0    0    0
SMALL
NO_CHARGES


@<TRIPOS>ATOM
   1 N1            -0.0160     1.3258     0.0228 N.ar    
   2 C2             0.0017    -0.0034     0.0126 C.ar    
   3 C3             1.2290    -0.6823    -0.0097 C.ar    
   4 C4             2.3869     0.0729    -0.0203 C.ar    
   5 C5             2.2638     1.4632    -0.0082 C.ar    
   6 N6             1.0625     2.0217     0.0128 N.ar    
   7 C7            -1.2269    -0.7390     0.0249 C.1     
   8 C8            -2.2341    -1.3421     0.0350 C.1     
   9 C9            -3.4626    -2.0777     0.0472 C.ar    
  10 C10           -3.4444    -3.4746     0.0365 C.ar    
  11 C11           -4.6329    -4.1769     0.0490 C.ar    
  12 C12           -5.8405    -3.4995     0.0719 C.ar    
  13 C13           -5.8651    -2.1159     0.0826 C.ar    
  14 C14           -4.6856    -1.4015     0.0758 C.ar    
  15 N15            3.4043     2.2638    -0.0178 N.am    
  16 C16            3.2867     3.6032    -0.1112 C.2     
  17 C17            4.5104     4.4763    -0.0046 C.3     
  18 O18            2.1961     4.1058    -0.2811 O.2     
  19 Cl19          -4.6136    -5.9127     0.0352 Cl      
  20 C20            4.1029     5.9445    -0.1429 C.3     
  21 C21            5.1760     4.2577     1.3555 C.3     
  22 C22            5.4946     4.1131    -1.1183 C.3     
  23 H23            1.2681    -1.7616    -0.0179 H       
  24 H24            3.3582    -0.3990    -0.0371 H       
  25 H25           -2.5030    -4.0037     0.0183 H       
  26 H26           -6.7674    -4.0536     0.0812 H       
  27 H27           -6.8106    -1.5942     0.1002 H       
  28 H28           -4.7069    -0.3217     0.0841 H       
  29 H29            4.2829     1.8571     0.0427 H       
  30 H30            3.4017     6.2033     0.6505 H       
  31 H31            4.9880     6.5760    -0.0658 H       
  32 H32            3.6287     6.1003    -1.1119 H       
  33 H33            5.4663     3.2117     1.4541 H       
  34 H34            6.0610     4.8892     1.4327 H       
  35 H35            4.4748     4.5164     2.1489 H       
  36 H36            5.0205     4.2689    -2.0873 H       
  37 H37            6.3797     4.7446    -1.0412 H       
  38 H38            5.7849     3.0671    -1.0198 H       
@<TRIPOS>BOND
   1    1    2 ar
   2    1    6 ar
   3    2    3 ar
   4    2    7 1
   5    3    4 ar
   6    3   23 1
   7    4    5 ar
   8    4   24 1
   9    5    6 ar
  10    5   15 1
  11    7    8 3
  12    8    9 1
  13    9   10 ar
  14    9   14 ar
  15   10   11 ar
  16   10   25 1
  17   11   12 ar
  18   11   19 1
  19   12   13 ar
  20   12   26 1
  21   13   14 ar
  22   13   27 1
  23   14   28 1
  24   15   16 am
  25   15   29 1
  26   16   17 1
  27   16   18 2
  28   17   20 1
  29   17   21 1
  30   17   22 1
  31   20   30 1
  32   20   31 1
  33   20   32 1
  34   21   33 1
  35   21   34 1
  36   21   35 1
  37   22   36 1
  38   22   37 1
  39   22   38 1

#	End of record

