#	Name: ASD03160001
#	Creating user name:	WinNT
#	Creation time:	15. 06. 2019 20:33

#	Modifying user name:	WinNT
#	Modification time:	15. 06. 2019 20:33

#	Program:	/corina/corina34_cracker 3.40 0067  02.08.2006

@<TRIPOS>MOLECULE
ASD03160001
  53   54    0    0    0
SMALL
NO_CHARGES


@<TRIPOS>ATOM
   1 C1            -0.0167     1.3835     0.0096 C.ar    
   2 C2             0.0021    -0.0041     0.0020 C.ar    
   3 C3            -1.1844    -0.7123     0.0096 C.ar    
   4 C4            -2.3921    -0.0412     0.0247 C.ar    
   5 C5            -2.4162     1.3463     0.0324 C.ar    
   6 C6            -1.2272     2.0591     0.0306 C.ar    
   7 C7            -1.2505     3.5659     0.0390 C.3     
   8 C8            -0.5306     4.0774     1.2887 C.3     
   9 C9            -0.3365     5.5927     1.1507 C.3     
  10 C10            0.6546     5.8522     0.0140 C.3     
  11 C11            0.2542     5.0779    -1.2076 C.2     
  12 C12           -0.5710     4.0807    -1.1961 C.2     
  13 C13            0.8496     5.4872    -2.5302 C.3     
  14 C14           -1.3634     3.7824     2.5095 C.2     
  15 C15           -0.8810     3.0267     3.4646 C.2     
  16 C16           -2.7513     4.3568     2.6315 C.3     
  17 O17            1.1505     2.0795     0.0022 O.3     
  18 O18           -3.6044     2.0057     0.0468 O.3     
  19 C19           -1.1611    -2.2191     0.0007 C.3     
  20 C20           -1.1391    -2.7372     1.4402 C.3     
  21 C21           -1.1154    -4.2670     1.4312 C.3     
  22 C22           -1.0935    -4.7852     2.8706 C.3     
  23 C23           -1.0698    -6.3150     2.8617 C.3     
  24 H24            0.9448    -0.5308    -0.0102 H       
  25 H25           -3.3181    -0.5970     0.0302 H       
  26 H26           -2.2842     3.9112     0.0508 H       
  27 H27            0.4405     3.5902     1.3774 H       
  28 H28           -1.2913     6.0648     0.9193 H       
  29 H29            0.0598     5.9976     2.0819 H       
  30 H30            0.6650     6.9167    -0.2203 H       
  31 H31            1.6520     5.5433     0.3267 H       
  32 H32           -0.7835     3.5883    -2.1335 H       
  33 H33            1.7771     4.9392    -2.6962 H       
  34 H34            0.1456     5.2609    -3.3311 H       
  35 H35            1.0566     6.5573    -2.5199 H       
  36 H36           -1.4779     2.8154     4.3395 H       
  37 H37            0.1137     2.6151     3.3772 H       
  38 H38           -2.9766     4.9536     1.7477 H       
  39 H39           -3.4742     3.5453     2.7158 H       
  40 H40           -2.8071     4.9868     3.5192 H       
  41 H41            1.4798     2.2857    -0.8832 H       
  42 H42           -3.9402     2.1918     0.9344 H       
  43 H43           -2.0503    -2.5933    -0.5066 H       
  44 H44           -0.2706    -2.5656    -0.5238 H       
  45 H45           -0.2499    -2.3631     1.9475 H       
  46 H46           -2.0295    -2.3907     1.9647 H       
  47 H47           -2.0047    -4.6412     0.9239 H       
  48 H48           -0.2250    -4.6136     0.9067 H       
  49 H49           -0.2042    -4.4110     3.3780 H       
  50 H50           -1.9839    -4.4386     3.3952 H       
  51 H51           -0.1794    -6.6615     2.3372 H       
  52 H52           -1.0541    -6.6841     3.8872 H       
  53 H53           -1.9590    -6.6891     2.3544 H       
@<TRIPOS>BOND
   1    1    2 ar
   2    1   17 1
   3    1    6 ar
   4    2    3 ar
   5    2   24 1
   6    3    4 ar
   7    3   19 1
   8    4    5 ar
   9    4   25 1
  10    5    6 ar
  11    5   18 1
  12    6    7 1
  13    7    8 1
  14    7   12 1
  15    7   26 1
  16    8    9 1
  17    8   14 1
  18    8   27 1
  19    9   10 1
  20    9   28 1
  21    9   29 1
  22   10   11 1
  23   10   30 1
  24   10   31 1
  25   11   12 2
  26   11   13 1
  27   12   32 1
  28   13   33 1
  29   13   34 1
  30   13   35 1
  31   14   15 2
  32   14   16 1
  33   15   36 1
  34   15   37 1
  35   16   38 1
  36   16   39 1
  37   16   40 1
  38   17   41 1
  39   18   42 1
  40   19   20 1
  41   19   43 1
  42   19   44 1
  43   20   21 1
  44   20   45 1
  45   20   46 1
  46   21   22 1
  47   21   47 1
  48   21   48 1
  49   22   23 1
  50   22   49 1
  51   22   50 1
  52   23   51 1
  53   23   52 1
  54   23   53 1

#	End of record

