#	Name: ASD01120001
#	Creating user name:	WinNT
#	Creation time:	15. 06. 2019 18:58

#	Modifying user name:	WinNT
#	Modification time:	15. 06. 2019 18:58

#	Program:	/corina/corina34_cracker 3.40 0067  02.08.2006

@<TRIPOS>MOLECULE
ASD01120001
  53   56    0    0    0
SMALL
NO_CHARGES


@<TRIPOS>ATOM
   1 C1            -0.1060     1.4163    -1.1197 C.ar    
   2 C2            -0.1034     0.0406    -1.2678 C.ar    
   3 C3            -1.2780    -0.6719    -1.1425 C.ar    
   4 C4            -2.4711    -0.0017    -0.8656 C.ar    
   5 C5            -2.4665     1.3865    -0.7173 C.ar    
   6 C6            -1.2839     2.0862    -0.8400 C.ar    
   7 C7            -3.7329    -0.7582    -0.7305 C.2     
   8 N8            -3.8757    -2.0591    -0.8456 N.2     
   9 N9            -5.1110    -2.3708    -0.6665 N.2     
  10 C10           -5.8060    -1.2813    -0.4300 C.2     
  11 O11           -4.9487    -0.2407    -0.4606 O.3     
  12 C12           -7.2592    -1.2098    -0.1727 C.ar    
  13 C13           -8.0269    -2.3744    -0.1656 C.ar    
  14 C14           -9.3896    -2.2992     0.0770 C.ar    
  15 C15           -9.9866    -1.0666     0.3121 C.ar    
  16 C16           -9.2259     0.0880     0.3051 C.ar    
  17 C17           -7.8679     0.0236     0.0699 C.ar    
  18 N18          -10.1643    -3.4647     0.0848 N.am    
  19 C19           -9.6489    -4.6132     0.5662 C.2     
  20 C20          -10.5152    -5.8417     0.6721 C.3     
  21 O21           -8.4879    -4.6580     0.9142 O.2     
  22 C22           -9.6928    -6.9980     1.2444 C.3     
  23 N23          -10.5372    -8.1955     1.3477 N.3     
  24 C24           -9.7311    -9.3828     1.6668 C.3     
  25 C25          -10.6551   -10.5933     1.8237 C.3     
  26 O26          -11.4180   -10.7628     0.6259 O.3     
  27 C27          -12.2155    -9.6256     0.2856 C.3     
  28 C28          -11.3073    -8.4052     0.1131 C.3     
  29 C29            1.1812     2.1880    -1.2575 C.3     
  30 H30            0.8201    -0.4765    -1.4823 H       
  31 H31           -1.2747    -1.7456    -1.2587 H       
  32 H32           -3.3859     1.9110    -0.5031 H       
  33 H33           -1.2789     3.1601    -0.7256 H       
  34 H34           -7.5611    -3.3314    -0.3489 H       
  35 H35          -11.0485    -1.0102     0.5005 H       
  36 H36           -9.6957     1.0430     0.4885 H       
  37 H37           -7.2772     0.9277     0.0652 H       
  38 H38          -11.0721    -3.4459    -0.2564 H       
  39 H39          -11.3592    -5.6355     1.3304 H       
  40 H40          -10.8838    -6.1128    -0.3172 H       
  41 H41           -8.8488    -7.2042     0.5862 H       
  42 H42           -9.3242    -6.7269     2.2338 H       
  43 H43           -9.0216    -9.5685     0.8604 H       
  44 H44           -9.1893    -9.2154     2.5977 H       
  45 H45          -10.0572   -11.4867     2.0039 H       
  46 H46          -11.3292   -10.4301     2.6645 H       
  47 H47          -12.7462    -9.8190    -0.6467 H       
  48 H48          -12.9350    -9.4342     1.0817 H       
  49 H49          -11.9161    -7.5242    -0.0902 H       
  50 H50          -10.6231    -8.5753    -0.7182 H       
  51 H51            1.3188     2.4821    -2.2980 H       
  52 H52            1.1397     3.0786    -0.6305 H       
  53 H53            2.0159     1.5612    -0.9436 H       
@<TRIPOS>BOND
   1    1    2 ar
   2    1   29 1
   3    1    6 ar
   4    2    3 ar
   5    2   30 1
   6    3    4 ar
   7    3   31 1
   8    4    5 ar
   9    4    7 1
  10    5    6 ar
  11    5   32 1
  12    6   33 1
  13    7    8 2
  14    7   11 1
  15    8    9 1
  16    9   10 2
  17   10   11 1
  18   10   12 1
  19   12   13 ar
  20   12   17 ar
  21   13   14 ar
  22   13   34 1
  23   14   15 ar
  24   14   18 1
  25   15   16 ar
  26   15   35 1
  27   16   17 ar
  28   16   36 1
  29   17   37 1
  30   18   19 am
  31   18   38 1
  32   19   20 1
  33   19   21 2
  34   20   22 1
  35   20   39 1
  36   20   40 1
  37   22   23 1
  38   22   41 1
  39   22   42 1
  40   23   24 1
  41   23   28 1
  42   24   25 1
  43   24   43 1
  44   24   44 1
  45   25   26 1
  46   25   45 1
  47   25   46 1
  48   26   27 1
  49   27   28 1
  50   27   47 1
  51   27   48 1
  52   28   49 1
  53   28   50 1
  54   29   51 1
  55   29   52 1
  56   29   53 1

#	End of record

