#	Name: ASD01028627
#	Creating user name:	WinNT
#	Creation time:	15. 06. 2019 18:57

#	Modifying user name:	WinNT
#	Modification time:	15. 06. 2019 18:57

#	Program:	/corina/corina34_cracker 3.40 0067  02.08.2006

@<TRIPOS>MOLECULE
ASD01028627
  44   48    0    0    0
SMALL
NO_CHARGES


@<TRIPOS>ATOM
   1 C1            -0.0164     1.3578     0.0095 C.2     
   2 N2             0.0021    -0.0041     0.0020 N.pl3   
   3 C3             1.1499     2.0638     0.0022 C.2     
   4 C4             2.3924     1.3824    -0.0134 C.2     
   5 C5             2.4128     0.0237    -0.0209 C.2     
   6 C6             1.1932    -0.6874    -0.0131 C.2     
   7 N7             0.8954    -1.9761    -0.0176 N.2     
   8 N8            -0.3829    -2.1220    -0.0063 N.2     
   9 C9            -0.9726    -0.9545     0.0058 C.2     
  10 C10           -3.7533    -0.5229    -2.0858 C.ar    
  11 C11           -3.0832    -1.3178    -1.2064 C.ar    
  12 C12           -2.9667    -2.6884    -1.4273 C.ar    
  13 C13           -3.5181    -3.2721    -2.5263 C.ar    
  14 C14           -4.2180    -2.4849    -3.4569 C.ar    
  15 C15           -4.3356    -1.0910    -3.2299 C.ar    
  16 N16           -4.7706    -3.0303    -4.5453 N.ar    
  17 C17           -5.4246    -2.3007    -5.4159 C.ar    
  18 C18           -5.5770    -0.9253    -5.2529 C.ar    
  19 C19           -5.0369    -0.3042    -4.1631 C.ar    
  20 C20            1.1184     3.5414     0.0100 C.2     
  21 C21           -2.4590    -0.7068     0.0217 C.3     
  22 F22            3.5892    -0.6404    -0.0354 F       
  23 C23            1.5725     4.3685     1.0016 C.2     
  24 C24            1.3075     5.6628     0.5104 C.2     
  25 N25            0.7528     5.5109    -0.6588 N.2     
  26 O26            0.6431     4.3448    -0.9585 O.3     
  27 C27            1.6067     6.9676     1.2025 C.3     
  28 C28           -3.0685    -1.3418     1.2732 C.3     
  29 H29           -0.9608     1.8816     0.0168 H       
  30 H30            3.3175     1.9397    -0.0196 H       
  31 H31           -3.8404     0.5378    -1.9017 H       
  32 H32           -2.4299    -3.2975    -0.7152 H       
  33 H33           -3.4179    -4.3360    -2.6829 H       
  34 H34           -5.8566    -2.7782    -6.2830 H       
  35 H35           -6.1211    -0.3508    -5.9880 H       
  36 H36           -5.1450     0.7610    -4.0210 H       
  37 H37           -2.6484     0.3665     0.0298 H       
  38 H38            2.0274     4.0935     1.9417 H       
  39 H39            2.6062     7.3041     0.9269 H       
  40 H40            0.8748     7.7161     0.8990 H       
  41 H41            1.5557     6.8263     2.2821 H       
  42 H42           -2.8790    -2.4152     1.2650 H       
  43 H43           -2.6170    -0.8999     2.1614 H       
  44 H44           -4.1436    -1.1627     1.2847 H       
@<TRIPOS>BOND
   1    1    2 1
   2    1    3 2
   3    1   29 1
   4    2    6 1
   5    2    9 1
   6    3    4 1
   7    3   20 1
   8    4    5 2
   9    4   30 1
  10    5    6 1
  11    5   22 1
  12    6    7 2
  13    7    8 1
  14    8    9 2
  15    9   21 1
  16   10   11 ar
  17   10   15 ar
  18   10   31 1
  19   11   12 ar
  20   11   21 1
  21   12   13 ar
  22   12   32 1
  23   13   14 ar
  24   13   33 1
  25   14   15 ar
  26   14   16 ar
  27   15   19 ar
  28   16   17 ar
  29   17   18 ar
  30   17   34 1
  31   18   19 ar
  32   18   35 1
  33   19   36 1
  34   20   23 2
  35   20   26 1
  36   21   28 1
  37   21   37 1
  38   23   24 1
  39   23   38 1
  40   24   25 2
  41   24   27 1
  42   25   26 1
  43   27   39 1
  44   27   40 1
  45   27   41 1
  46   28   42 1
  47   28   43 1
  48   28   44 1

#	End of record

