#	Name: ASD03091964
#	Creating user name:	WinNT
#	Creation time:	15. 06. 2019 20:31

#	Modifying user name:	WinNT
#	Modification time:	15. 06. 2019 20:31

#	Program:	/corina/corina34_cracker 3.40 0067  02.08.2006

@<TRIPOS>MOLECULE
ASD03091964
  56   60    0    0    0
SMALL
NO_CHARGES


@<TRIPOS>ATOM
   1 C1            -0.0170     1.3990     0.0097 C.ar    
   2 C2            -1.2302     2.0682     0.0306 C.ar    
   3 C3            -2.4113     1.3476     0.0434 C.ar    
   4 C4            -2.3921    -0.0379     0.0355 C.ar    
   5 C5            -1.1921    -0.7189     0.0148 C.ar    
   6 C6             0.0021    -0.0041     0.0020 C.ar    
   7 O7             1.1634     2.0662     0.0020 O.3     
   8 C8             2.2625     1.4579     0.6803 C.3     
   9 N9             2.4083     0.0563     0.2863 N.am    
  10 C10            1.3145    -0.6822    -0.0142 C.2     
  11 C11           -3.6890    -0.8053     0.0500 C.3     
  12 C12           -4.2048    -0.9467    -1.3589 C.ar    
  13 C13           -5.0426     0.0183    -1.8870 C.ar    
  14 C14           -3.8347    -2.0382    -2.1229 C.ar    
  15 C15           -4.3054    -2.1703    -3.4147 C.ar    
  16 C16           -5.1511    -1.2057    -3.9459 C.ar    
  17 C17           -5.5170    -0.1085    -3.1780 C.ar    
  18 O18            1.4088    -1.8632    -0.2876 O.2     
  19 C19            3.7407    -0.5489     0.2168 C.3     
  20 C20            3.8132    -1.7400     1.1772 C.3     
  21 N21           -5.6305    -1.3370    -5.2566 N.pl3   
  22 C22            5.1812    -2.4134     1.0403 C.3     
  23 C23            4.0067    -1.0402    -1.2094 C.3     
  24 C24            5.3672    -1.7406    -1.2542 C.3     
  25 O25            5.3776    -2.8185    -0.3160 O.3     
  26 O26            4.0133     0.0736    -2.1047 O.3     
  27 C27           -6.4513    -0.4720    -5.8942 C.2     
  28 C28           -6.6770    -0.9582    -7.1367 C.2     
  29 C29           -5.9714    -2.1598    -7.2638 C.2     
  30 N30           -5.3393    -2.3845    -6.1400 N.2     
  31 C31           -3.7303     2.0760     0.0668 C.3     
  32 F32           -1.2596     3.4188     0.0388 F       
  33 H33           -1.1796    -1.7988     0.0090 H       
  34 H34            3.1777     1.9963     0.4343 H       
  35 H35            2.0941     1.5120     1.7559 H       
  36 H36           -3.5212    -1.7943     0.4764 H       
  37 H37           -4.4217    -0.2691     0.6531 H       
  38 H38           -5.3267     0.8718    -1.2893 H       
  39 H39           -3.1766    -2.7880    -1.7093 H       
  40 H40           -4.0158    -3.0228    -4.0110 H       
  41 H41           -6.1719     0.6452    -3.5897 H       
  42 H42            4.4920     0.1907     0.4938 H       
  43 H43            3.6799    -1.3910     2.2012 H       
  44 H44            3.0287    -2.4553     0.9302 H       
  45 H45            5.9630    -1.7098     1.3264 H       
  46 H46            5.2228    -3.2874     1.6903 H       
  47 H47            3.2261    -1.7413    -1.5047 H       
  48 H48            5.5428    -2.1299    -2.2570 H       
  49 H49            6.1514    -1.0282    -0.9981 H       
  50 H50            4.1764    -0.1646    -3.0276 H       
  51 H51           -6.8547     0.4426    -5.4851 H       
  52 H52           -7.2933    -0.5000    -7.8960 H       
  53 H53           -5.9487    -2.7908    -8.1399 H       
  54 H54           -4.0632     2.2577    -0.9551 H       
  55 H55           -4.4712     1.4696     0.5879 H       
  56 H56           -3.6107     3.0277     0.5846 H       
@<TRIPOS>BOND
   1    1    6 ar
   2    1    7 1
   3    1    2 ar
   4    2    3 ar
   5    2   32 1
   6    3    4 ar
   7    3   31 1
   8    4    5 ar
   9    4   11 1
  10    5    6 ar
  11    5   33 1
  12    6   10 1
  13    7    8 1
  14    8    9 1
  15    8   34 1
  16    8   35 1
  17    9   10 am
  18    9   19 1
  19   10   18 2
  20   11   12 1
  21   11   36 1
  22   11   37 1
  23   12   14 ar
  24   12   13 ar
  25   13   17 ar
  26   13   38 1
  27   14   15 ar
  28   14   39 1
  29   15   16 ar
  30   15   40 1
  31   16   17 ar
  32   16   21 1
  33   17   41 1
  34   19   23 1
  35   19   20 1
  36   19   42 1
  37   20   22 1
  38   20   43 1
  39   20   44 1
  40   21   30 1
  41   21   27 1
  42   22   25 1
  43   22   45 1
  44   22   46 1
  45   23   24 1
  46   23   26 1
  47   23   47 1
  48   24   25 1
  49   24   48 1
  50   24   49 1
  51   26   50 1
  52   27   28 2
  53   27   51 1
  54   28   29 1
  55   28   52 1
  56   29   30 2
  57   29   53 1
  58   31   54 1
  59   31   55 1
  60   31   56 1

#	End of record

