#	Name: ASD01883831
#	Creating user name:	WinNT
#	Creation time:	15. 06. 2019 19:47

#	Modifying user name:	WinNT
#	Modification time:	15. 06. 2019 19:47

#	Program:	/corina/corina34_cracker 3.40 0067  02.08.2006

@<TRIPOS>MOLECULE
ASD01883831
  52   54    0    0    0
SMALL
NO_CHARGES


@<TRIPOS>ATOM
   1 N1             0.0782     1.4096     0.6753 N.ar    
   2 C2             0.0574     0.0922     0.6034 C.ar    
   3 C3             1.2260    -0.6278     0.4664 C.ar    
   4 C4             2.4422     0.0585     0.4040 C.ar    
   5 C5             2.4179     1.4535     0.4840 C.ar    
   6 C6             1.2039     2.0951     0.6204 C.ar    
   7 C7             3.7240    -0.6742     0.2574 C.2     
   8 C8             3.8651    -2.0618     0.0688 C.2     
   9 C9             5.1937    -2.3358    -0.0200 C.2     
  10 N10            5.8672    -1.1622     0.1081 N.pl3   
  11 N11            4.9262    -0.1383     0.2754 N.2     
  12 C12            1.1636     3.5991     0.7078 C.3     
  13 C13            7.3223    -0.9964     0.0723 C.3     
  14 C14            7.7858    -0.8715    -1.3804 C.3     
  15 O15            7.2547     0.3273    -1.9485 O.3     
  16 N16            5.7625    -3.5930    -0.2083 N.pl3   
  17 C17            6.1902    -4.3383     0.8933 C.ar    
  18 C18            6.6642    -5.6322     0.7166 C.ar    
  19 C19            7.0868    -6.3666     1.8074 C.ar    
  20 C20            7.0384    -5.8161     3.0746 C.ar    
  21 C21            6.5663    -4.5272     3.2549 C.ar    
  22 C22            6.1478    -3.7850     2.1669 C.ar    
  23 C23            7.5000    -6.6208     4.2622 C.3     
  24 F24            7.9287    -7.8814     3.8331 F       
  25 F25            8.5587    -5.9575     4.8919 F       
  26 F26            6.4410    -6.7704     5.1641 F       
  27 C27            9.3144    -0.8237    -1.4258 C.3     
  28 C28            7.0214     0.2498    -3.3562 C.3     
  29 Cl29           6.5063    -3.8405     4.8482 Cl      
  30 C30            5.9123    -4.1340    -1.5615 C.3     
  31 H31           -0.8870    -0.4292     0.6529 H       
  32 H32            1.2016    -1.7060     0.4085 H       
  33 H33            3.3357     2.0210     0.4400 H       
  34 H34            3.0614    -2.7806     0.0059 H       
  35 H35            1.2386     3.9045     1.7514 H       
  36 H36            1.9982     4.0182     0.1457 H       
  37 H37            0.2249     3.9623     0.2894 H       
  38 H38            7.5990    -0.0959     0.6207 H       
  39 H39            7.7981    -1.8625     0.5323 H       
  40 H40            7.4321    -1.7311    -1.9498 H       
  41 H41            6.7018    -6.0635    -0.2728 H       
  42 H42            7.4553    -7.3725     1.6701 H       
  43 H43            5.7799    -2.7794     2.3077 H       
  44 H44            9.6680     0.0359    -0.8564 H       
  45 H45            9.7195    -1.7382    -0.9925 H       
  46 H46            9.6446    -0.7347    -2.4607 H       
  47 H47            7.9600     0.0392    -3.8689 H       
  48 H48            6.3077    -0.5477    -3.5628 H       
  49 H49            6.6187     1.1986    -3.7106 H       
  50 H50            6.9152    -3.9181    -1.9301 H       
  51 H51            5.7572    -5.2127    -1.5408 H       
  52 H52            5.1761    -3.6735    -2.2204 H       
@<TRIPOS>BOND
   1    1    2 ar
   2    1    6 ar
   3    2    3 ar
   4    2   31 1
   5    3    4 ar
   6    3   32 1
   7    4    5 ar
   8    4    7 1
   9    5    6 ar
  10    5   33 1
  11    6   12 1
  12    7    8 1
  13    7   11 2
  14    8    9 2
  15    8   34 1
  16    9   10 1
  17    9   16 1
  18   10   11 1
  19   10   13 1
  20   12   35 1
  21   12   36 1
  22   12   37 1
  23   13   14 1
  24   13   38 1
  25   13   39 1
  26   14   15 1
  27   14   27 1
  28   14   40 1
  29   15   28 1
  30   16   17 1
  31   16   30 1
  32   17   18 ar
  33   17   22 ar
  34   18   19 ar
  35   18   41 1
  36   19   20 ar
  37   19   42 1
  38   20   21 ar
  39   20   23 1
  40   21   22 ar
  41   21   29 1
  42   22   43 1
  43   23   24 1
  44   23   25 1
  45   23   26 1
  46   27   44 1
  47   27   45 1
  48   27   46 1
  49   28   47 1
  50   28   48 1
  51   28   49 1
  52   30   50 1
  53   30   51 1
  54   30   52 1

#	End of record

