#	Name: ASD04640025
#	Creating user name:	WinNT
#	Creation time:	15. 06. 2019 20:52

#	Modifying user name:	WinNT
#	Modification time:	15. 06. 2019 20:52

#	Program:	/corina/corina34_cracker 3.40 0067  02.08.2006

@<TRIPOS>MOLECULE
ASD04640025
  54   58    0    0    0
SMALL
NO_CHARGES


@<TRIPOS>ATOM
   1 C1            -0.0793     1.4962     0.0205 C.ar    
   2 C2            -0.0583    -0.0105     0.0101 C.3     
   3 N3             1.2607    -0.5029    -0.3989 N.3     
   4 C4             2.3124     0.1134     0.4257 C.3     
   5 C5             2.4412     1.5838     0.0274 C.3     
   6 C6             1.3226    -1.9686    -0.3218 C.3     
   7 C7             0.3712    -2.5743    -1.3557 C.3     
   8 C8             0.3767    -4.0960    -1.5148 C.3     
   9 C9            -0.8049    -3.4023    -0.8340 C.3     
  10 C10            0.1511    -4.6603    -2.9189 C.3     
  11 N11            0.3090    -6.1166    -2.8911 N.am    
  12 C12            0.1546    -6.8329    -4.0222 C.2     
  13 C13            0.3140    -8.3030    -3.9942 C.ar    
  14 O14           -0.1156    -6.2707    -5.0654 O.2     
  15 C15            0.0434    -9.0913    -5.1412 C.ar    
  16 C16            0.7393    -8.9570    -2.8450 C.ar    
  17 C17            0.8789   -10.3426    -2.8543 C.ar    
  18 N18            0.6198   -11.0570    -3.9213 N.ar    
  19 C19            0.2120   -10.4960    -5.0625 C.ar    
  20 C20           -0.0561   -11.2802    -6.1996 C.ar    
  21 C21           -0.4703   -10.6823    -7.3495 C.ar    
  22 C22           -0.6342    -9.3004    -7.4225 C.ar    
  23 C23           -0.3850    -8.5095    -6.3416 C.ar    
  24 C24            1.0836     2.2392     0.0314 C.ar    
  25 C25            1.0212     3.6218     0.0454 C.ar    
  26 C26           -0.2137     4.2689     0.0467 C.ar    
  27 C27           -1.3871     3.5116     0.0330 C.ar    
  28 C28           -1.3118     2.1367     0.0247 C.ar    
  29 C29           -0.2785     5.6994     0.0624 C.1     
  30 N30           -0.3299     6.8341     0.0749 N.1     
  31 H31           -0.2862    -0.3803     1.0098 H       
  32 H32           -0.8111    -0.3759    -0.6883 H       
  33 H33            2.0411     0.0416     1.4789 H       
  34 H34            3.2597    -0.3973     0.2528 H       
  35 H35            3.0919     2.0952     0.7368 H       
  36 H36            2.8729     1.6517    -0.9712 H       
  37 H37            2.3404    -2.3006    -0.5263 H       
  38 H38            1.0283    -2.2927     0.6764 H       
  39 H39            0.2073    -1.9752    -2.2515 H       
  40 H40            1.0584    -4.6656    -0.8831 H       
  41 H41           -0.9008    -3.5155     0.2459 H       
  42 H42           -1.7429    -3.3479    -1.3864 H       
  43 H43           -0.8557    -4.4104    -3.2535 H       
  44 H44            0.8797    -4.2289    -3.6053 H       
  45 H45            0.5246    -6.5652    -2.0585 H       
  46 H46            0.9607    -8.3945    -1.9500 H       
  47 H47            1.2105   -10.8425    -1.9562 H       
  48 H48            0.0667   -12.3525    -6.1599 H       
  49 H49           -0.6748   -11.2884    -8.2197 H       
  50 H50           -0.9638    -8.8508    -8.3476 H       
  51 H51           -0.5163    -7.4396    -6.4098 H       
  52 H52            1.9324     4.2014     0.0558 H       
  53 H53           -2.3492     4.0022     0.0326 H       
  54 H54           -2.2192     1.5512     0.0138 H       
@<TRIPOS>BOND
   1    1    2 1
   2    1   24 ar
   3    1   28 ar
   4    2    3 1
   5    2   31 1
   6    2   32 1
   7    3    4 1
   8    3    6 1
   9    4    5 1
  10    4   33 1
  11    4   34 1
  12    5   24 1
  13    5   35 1
  14    5   36 1
  15    6    7 1
  16    6   37 1
  17    6   38 1
  18    7    8 1
  19    7    9 1
  20    7   39 1
  21    8   10 1
  22    8    9 1
  23    8   40 1
  24    9   41 1
  25    9   42 1
  26   10   11 1
  27   10   43 1
  28   10   44 1
  29   11   12 am
  30   11   45 1
  31   12   13 1
  32   12   14 2
  33   13   16 ar
  34   13   15 ar
  35   15   19 ar
  36   15   23 ar
  37   16   17 ar
  38   16   46 1
  39   17   18 ar
  40   17   47 1
  41   18   19 ar
  42   19   20 ar
  43   20   21 ar
  44   20   48 1
  45   21   22 ar
  46   21   49 1
  47   22   23 ar
  48   22   50 1
  49   23   51 1
  50   24   25 ar
  51   25   26 ar
  52   25   52 1
  53   26   27 ar
  54   26   29 1
  55   27   28 ar
  56   27   53 1
  57   28   54 1
  58   29   30 3

#	End of record

