#	Name: ASD01948016
#	Creating user name:	WinNT
#	Creation time:	15. 06. 2019 20:13

#	Modifying user name:	WinNT
#	Modification time:	15. 06. 2019 20:13

#	Program:	/corina/corina34_cracker 3.40 0067  02.08.2006

@<TRIPOS>MOLECULE
ASD01948016
  37   39    0    0    0
SMALL
NO_CHARGES


@<TRIPOS>ATOM
   1 C1            -0.0509     1.5645     0.1869 C.2     
   2 C2            -0.1073     0.2835    -0.3079 C.2     
   3 C3             1.0581    -0.3596    -0.7330 C.2     
   4 C4             2.2689     0.3129    -0.6487 C.2     
   5 C5             2.2872     1.6105    -0.1423 C.2     
   6 N6             1.1459     2.2077     0.2617 N.am    
   7 N7            -1.0921     2.3454     0.6420 N.pl3   
   8 C8            -0.5703     3.6448     1.0776 C.3     
   9 C9             0.9428     3.5548     0.8210 C.3     
  10 O10            3.3466     2.2137    -0.0623 O.2     
  11 N11           -1.4083    -0.4181    -0.3902 N.pl3   
  12 O12           -2.0209    -0.4435    -1.4426 O.2     
  13 O13           -1.8660    -0.9700     0.5944 O.2     
  14 C14            3.5451    -0.3509    -1.0979 C.3     
  15 O15            1.0066    -1.6227    -1.2205 O.3     
  16 C16           -2.4993     1.9403     0.6840 C.3     
  17 C17           -3.2643     2.6701    -0.3899 C.ar    
  18 C18           -3.4881     2.0644    -1.6121 C.ar    
  19 C19           -4.1898     2.7338    -2.5972 C.ar    
  20 C20           -4.6681     4.0089    -2.3598 C.ar    
  21 C21           -4.4452     4.6143    -1.1373 C.ar    
  22 C22           -3.7472     3.9431    -0.1507 C.ar    
  23 H23           -1.0070     4.4486     0.4849 H       
  24 H24           -0.7710     3.7998     2.1377 H       
  25 H25            1.4956     3.6664     1.7538 H       
  26 H26            1.2504     4.3148     0.1028 H       
  27 H27            3.4359    -0.6884    -2.1285 H       
  28 H28            4.3673     0.3620    -1.0341 H       
  29 H29            3.7553    -1.2062    -0.4558 H       
  30 H30            1.8521    -1.9488    -1.5580 H       
  31 H31           -2.5733     0.8659     0.5164 H       
  32 H32           -2.9191     2.1856     1.6596 H       
  33 H33           -3.1144     1.0682    -1.7975 H       
  34 H34           -4.3640     2.2608    -3.5523 H       
  35 H35           -5.2157     4.5322    -3.1297 H       
  36 H36           -4.8186     5.6106    -0.9520 H       
  37 H37           -3.5762     4.4147     0.8058 H       
@<TRIPOS>BOND
   1    1    2 2
   2    1    6 1
   3    1    7 1
   4    2    3 1
   5    2   11 1
   6    3    4 2
   7    3   15 1
   8    4    5 1
   9    4   14 1
  10    5    6 am
  11    5   10 2
  12    6    9 1
  13    7    8 1
  14    7   16 1
  15    8    9 1
  16    8   23 1
  17    8   24 1
  18    9   25 1
  19    9   26 1
  20   11   12 2
  21   11   13 2
  22   14   27 1
  23   14   28 1
  24   14   29 1
  25   15   30 1
  26   16   17 1
  27   16   31 1
  28   16   32 1
  29   17   18 ar
  30   17   22 ar
  31   18   19 ar
  32   18   33 1
  33   19   20 ar
  34   19   34 1
  35   20   21 ar
  36   20   35 1
  37   21   22 ar
  38   21   36 1
  39   22   37 1

#	End of record

