#	Name: ASD01918047
#	Creating user name:	WinNT
#	Creation time:	15. 06. 2019 20:10

#	Modifying user name:	WinNT
#	Modification time:	15. 06. 2019 20:10

#	Program:	/corina/corina34_cracker 3.40 0067  02.08.2006

@<TRIPOS>MOLECULE
ASD01918047
  47   51    0    0    0
SMALL
NO_CHARGES


@<TRIPOS>ATOM
   1 C1            -0.0354     1.3595     0.0779 C.ar    
   2 C2            -0.0223    -0.0277     0.0842 C.ar    
   3 C3             1.1812    -0.7059     0.0806 C.ar    
   4 C4             2.3720    -0.0033     0.0709 C.ar    
   5 C5             2.3616     1.3793     0.0651 C.ar    
   6 C6             1.1608     2.0622     0.0681 C.ar    
   7 O7            -1.2180     2.0290     0.0758 O.3     
   8 C8            -1.1554     3.4566     0.0693 C.3     
   9 C9            -2.5528     4.0208     0.0677 C.2     
  10 N10           -3.2562     4.3099     1.1282 N.2     
  11 C11           -4.4448     4.7874     0.7359 C.2     
  12 C12           -4.4577     4.7889    -0.6110 C.2     
  13 O13           -3.2757     4.3137    -1.0248 O.3     
  14 C14           -5.5902     5.2462     1.6023 C.3     
  15 C15           -6.5375     6.1062     0.7565 C.3     
  16 N16           -6.7682     5.4419    -0.5351 N.am    
  17 C17           -5.6204     5.2678    -1.4447 C.3     
  18 C18           -7.9964     5.0060    -0.8785 C.2     
  19 O19           -8.9097     5.0671    -0.0769 O.2     
  20 C20           -8.2324     4.4570    -2.2206 C.2     
  21 C21           -7.6510     4.8670    -3.3840 C.2     
  22 N22           -8.1173     4.1238    -4.4163 N.pl3   
  23 C23           -9.0288     3.1915    -3.9652 C.ar    
  24 C24           -9.1397     3.3500    -2.5743 C.ar    
  25 C25           -9.9947     2.5289    -1.8439 C.ar    
  26 C26          -10.7278     1.5588    -2.4922 C.ar    
  27 C27          -10.6163     1.3983    -3.8655 C.ar    
  28 C28           -9.7807     2.2099    -4.6018 C.ar    
  29 H29           -0.9521    -0.5769     0.0922 H       
  30 H30            1.1920    -1.7859     0.0859 H       
  31 H31            3.3119    -0.5354     0.0681 H       
  32 H32            3.2931     1.9258     0.0578 H       
  33 H33            1.1532     3.1421     0.0629 H       
  34 H34           -0.6255     3.8011     0.9573 H       
  35 H35           -0.6267     3.7931    -0.8226 H       
  36 H36           -6.1282     4.3792     1.9856 H       
  37 H37           -5.2054     5.8365     2.4339 H       
  38 H38           -7.4864     6.2251     1.2795 H       
  39 H39           -6.0883     7.0848     0.5877 H       
  40 H40           -5.3740     6.2213    -1.9120 H       
  41 H41           -5.8573     4.5288    -2.2102 H       
  42 H42           -6.9280     5.6647    -3.4698 H       
  43 H43           -7.8485     4.2321    -5.3420 H       
  44 H44          -10.0826     2.6515    -0.7745 H       
  45 H45          -11.3918     0.9203    -1.9285 H       
  46 H46          -11.1953     0.6345    -4.3634 H       
  47 H47           -9.7002     2.0753    -5.6704 H       
@<TRIPOS>BOND
   1    1    2 ar
   2    1    6 ar
   3    1    7 1
   4    2    3 ar
   5    2   29 1
   6    3    4 ar
   7    3   30 1
   8    4    5 ar
   9    4   31 1
  10    5    6 ar
  11    5   32 1
  12    6   33 1
  13    7    8 1
  14    8    9 1
  15    8   34 1
  16    8   35 1
  17    9   10 2
  18    9   13 1
  19   10   11 1
  20   11   14 1
  21   11   12 2
  22   12   13 1
  23   12   17 1
  24   14   15 1
  25   14   36 1
  26   14   37 1
  27   15   16 1
  28   15   38 1
  29   15   39 1
  30   16   17 1
  31   16   18 am
  32   17   40 1
  33   17   41 1
  34   18   19 2
  35   18   20 1
  36   20   21 2
  37   20   24 1
  38   21   22 1
  39   21   42 1
  40   22   23 1
  41   22   43 1
  42   23   28 ar
  43   23   24 ar
  44   24   25 ar
  45   25   26 ar
  46   25   44 1
  47   26   27 ar
  48   26   45 1
  49   27   28 ar
  50   27   46 1
  51   28   47 1

#	End of record

