#	Name: ASD01190025
#	Creating user name:	WinNT
#	Creation time:	15. 06. 2019 19:07

#	Modifying user name:	WinNT
#	Modification time:	15. 06. 2019 19:07

#	Program:	/corina/corina34_cracker 3.40 0067  02.08.2006

@<TRIPOS>MOLECULE
ASD01190025
  56   59    0    0    0
SMALL
NO_CHARGES


@<TRIPOS>ATOM
   1 C1             0.0989     3.3335    -1.2569 C.3     
   2 C2            -0.1571     1.8471    -1.4102 C.2     
   3 C3             0.4218     0.9727    -0.3847 C.2     
   4 C4             1.4421     1.4001     0.3585 C.2     
   5 C5             2.0681     2.7521     0.2050 C.3     
   6 C6             1.5974     3.5169    -1.0192 C.3     
   7 C7             1.9759     0.4683     1.4312 C.3     
   8 C8             3.5004     0.4044     1.3135 C.3     
   9 C9             4.0705     1.8241     1.3876 C.3     
  10 C10            3.5953     2.6184     0.1624 C.3     
  11 C11            5.5869     1.7701     1.3408 C.3     
  12 C12            6.1006     3.2286     1.4820 C.3     
  13 C13            5.7521     3.9499     0.1941 C.3     
  14 C14            4.2188     4.0097     0.1100 C.3     
  15 C15            6.2643     1.0860     2.5339 C.3     
  16 C16            7.6946     1.6907     2.5158 C.3     
  17 C17            7.5850     3.0504     1.7821 C.3     
  18 C18            8.0752     4.1642     2.6710 C.2     
  19 C19            8.5172     5.4718     2.0662 C.3     
  20 O20           -0.8076     1.4038    -2.3334 O.2     
  21 O21            3.7221     4.7843     1.2032 O.3     
  22 O22            8.3356     3.0190     0.5666 O.3     
  23 O23            8.1139     4.0089     3.8680 O.2     
  24 O24            8.9349     6.3600     3.1048 O.3     
  25 C25            1.7182     3.5795     1.4435 C.3     
  26 C26            5.4068     3.9111     2.6626 C.3     
  27 H27           -0.1988     3.8565    -2.1658 H       
  28 H28           -0.4614     3.7201    -0.4056 H       
  29 H29            0.0207    -0.0183    -0.2316 H       
  30 H30            2.1424     3.1598    -1.8930 H       
  31 H31            1.8081     4.5771    -0.8789 H       
  32 H32            1.7009     0.8483     2.4152 H       
  33 H33            1.5565    -0.5280     1.2916 H       
  34 H34            3.9041    -0.1933     2.1308 H       
  35 H35            3.7735    -0.0485     0.3604 H       
  36 H36            3.7433     2.3091     2.3073 H       
  37 H37            3.8784     2.0787    -0.7413 H       
  38 H38            5.9223     1.3369     0.3986 H       
  39 H39            6.1629     4.9594     0.2109 H       
  40 H40            6.1498     3.4001    -0.6589 H       
  41 H41            3.9327     4.4922    -0.8246 H       
  42 H42            5.7520     1.3352     3.4632 H       
  43 H43            6.3002     0.0061     2.3898 H       
  44 H44            8.0493     1.8431     3.5351 H       
  45 H45            8.3737     1.0291     1.9779 H       
  46 H46            9.3486     5.2940     1.3840 H       
  47 H47            7.6870     5.9179     1.5186 H       
  48 H48            4.0467     5.6951     1.2195 H       
  49 H49            9.2875     2.9075     0.6949 H       
  50 H50            9.2334     7.2234     2.7876 H       
  51 H51            2.3725     3.2947     2.2674 H       
  52 H52            1.8519     4.6384     1.2227 H       
  53 H53            0.6809     3.3947     1.7228 H       
  54 H54            5.7870     3.4967     3.5963 H       
  55 H55            5.6073     4.9821     2.6321 H       
  56 H56            4.3320     3.7407     2.6004 H       
@<TRIPOS>BOND
   1    1    2 1
   2    1    6 1
   3    1   27 1
   4    1   28 1
   5    2    3 1
   6    2   20 2
   7    3    4 2
   8    3   29 1
   9    4    5 1
  10    4    7 1
  11    5    6 1
  12    5   25 1
  13    5   10 1
  14    6   30 1
  15    6   31 1
  16    7    8 1
  17    7   32 1
  18    7   33 1
  19    8    9 1
  20    8   34 1
  21    8   35 1
  22    9   11 1
  23    9   10 1
  24    9   36 1
  25   10   14 1
  26   10   37 1
  27   11   12 1
  28   11   15 1
  29   11   38 1
  30   12   13 1
  31   12   17 1
  32   12   26 1
  33   13   14 1
  34   13   39 1
  35   13   40 1
  36   14   21 1
  37   14   41 1
  38   15   16 1
  39   15   42 1
  40   15   43 1
  41   16   17 1
  42   16   44 1
  43   16   45 1
  44   17   18 1
  45   17   22 1
  46   18   19 1
  47   18   23 2
  48   19   24 1
  49   19   46 1
  50   19   47 1
  51   21   48 1
  52   22   49 1
  53   24   50 1
  54   25   51 1
  55   25   52 1
  56   25   53 1
  57   26   54 1
  58   26   55 1
  59   26   56 1

#	End of record

