#	Name: ASD07932207
#	Creating user name:	WinNT
#	Creation time:	15. 06. 2019 21:14

#	Modifying user name:	WinNT
#	Modification time:	15. 06. 2019 21:14

#	Program:	/corina/corina34_cracker 3.40 0067  02.08.2006

@<TRIPOS>MOLECULE
ASD07932207
  69   71    0    0    0
SMALL
NO_CHARGES


@<TRIPOS>ATOM
   1 Cl1            0.0000     0.0000     0.0000 Cl      
   2 H2             0.0000     1.3700     0.0000 H       
   3 Cl3            5.0000     6.3700     5.0000 Cl      
   4 H4             5.0000     7.7400     5.0000 H       
   5 C5            10.9496    21.3460    13.0849 C.ar    
   6 C6            10.9798    19.9532    13.0813 C.ar    
   7 C7            12.1600    19.2783    12.9993 C.ar    
   8 C8            13.3654    19.9926    12.9166 C.ar    
   9 C9            13.3407    21.4118    12.9193 C.ar    
  10 C10           12.0986    22.0743    13.0061 C.ar    
  11 C11           14.6039    19.3286    12.8312 C.ar    
  12 C12           15.7377    20.0843    12.7538 C.ar    
  13 C13           15.6448    21.4843    12.7611 C.ar    
  14 N14           14.4801    22.0976    12.8420 N.ar    
  15 C15           16.8845    22.2927    12.6769 C.2     
  16 N16           16.8131    23.6386    12.6827 N.am    
  17 O17           17.9651    21.7420    12.6028 O.2     
  18 C18           18.0383    24.4375    12.5996 C.3     
  19 C19           17.7951    25.8110    13.2282 C.3     
  20 C20           19.0747    26.6454    13.1413 C.3     
  21 C21           19.4716    26.8191    11.6740 C.3     
  22 C22           19.7148    25.4455    11.0454 C.3     
  23 C23           18.4353    24.6112    11.1322 C.3     
  24 O24           17.4244    25.6488    14.5987 O.3     
  25 C25           14.6757    17.8233    12.8257 C.3     
  26 N26           14.4667    17.3182    14.1892 N.3     
  27 C27           14.1643    15.8812    14.1775 C.3     
  28 C28           13.8105    15.4215    15.5936 C.3     
  29 C29           14.9904    15.7062    16.5271 C.3     
  30 C30           15.3159    17.2017    16.4840 C.3     
  31 C31           15.6260    17.6099    15.0420 C.3     
  32 C32           14.6256    15.3106    17.9348 C.ar    
  33 F33           12.0482    23.4243    13.0106 F       
  34 C34           13.9418    16.2024    18.7396 C.ar    
  35 N35           14.9578    14.1158    18.3827 N.ar    
  36 C36           14.6595    13.7265    19.6070 C.ar    
  37 C37           13.9816    14.5660    20.4702 C.ar    
  38 C38           13.6111    15.8287    20.0330 C.ar    
  39 H39           10.0000    21.8567    13.1467 H       
  40 H40           10.0541    19.4006    13.1449 H       
  41 H41           12.1684    18.1984    12.9983 H       
  42 H42           16.7038    19.6060    12.6875 H       
  43 H43           15.9505    24.0782    12.7420 H       
  44 H44           18.8403    23.9296    13.1353 H       
  45 H45           16.9931    26.3189    12.6925 H       
  46 H46           18.9014    27.6239    13.5891 H       
  47 H47           19.8767    26.1375    13.6770 H       
  48 H48           18.6696    27.3270    11.1383 H       
  49 H49           20.3832    27.4135    11.6121 H       
  50 H50           19.9976    25.5693    10.0000 H       
  51 H51           20.5168    24.9377    11.5811 H       
  52 H52           18.6085    23.6326    10.6844 H       
  53 H53           17.6333    25.1191    10.5965 H       
  54 H54           17.2544    26.4808    15.0613 H       
  55 H55           13.9030    17.4250    12.1682 H       
  56 H56           15.6556    17.5076    12.4676 H       
  57 H57           13.3209    15.6930    13.5132 H       
  58 H58           15.0353    15.3297    13.8236 H       
  59 H59           12.9312    15.9627    15.9429 H       
  60 H60           13.6013    14.3517    15.5873 H       
  61 H61           15.8593    15.1347    16.2007 H       
  62 H62           14.4603    17.7710    16.8473 H       
  63 H63           16.1822    17.4039    17.1138 H       
  64 H64           16.4902    17.0503    14.6840 H       
  65 H65           15.8443    18.6772    15.0056 H       
  66 H66           13.6690    17.1782    18.3657 H       
  67 H67           14.9481    12.7400    19.9386 H       
  68 H68           13.7397    14.2412    21.4714 H       
  69 H69           13.0808    16.5063    20.6857 H       
@<TRIPOS>BOND
   1    1    2 1
   2    3    4 1
   3    5    6 ar
   4    5   10 ar
   5    5   39 1
   6    6    7 ar
   7    6   40 1
   8    7    8 ar
   9    7   41 1
  10    8    9 ar
  11    8   11 ar
  12    9   10 ar
  13    9   14 ar
  14   10   33 1
  15   11   12 ar
  16   11   25 1
  17   12   13 ar
  18   12   42 1
  19   13   14 ar
  20   13   15 1
  21   15   16 am
  22   15   17 2
  23   16   18 1
  24   16   43 1
  25   18   19 1
  26   18   23 1
  27   18   44 1
  28   19   20 1
  29   19   24 1
  30   19   45 1
  31   20   21 1
  32   20   46 1
  33   20   47 1
  34   21   22 1
  35   21   48 1
  36   21   49 1
  37   22   23 1
  38   22   50 1
  39   22   51 1
  40   23   52 1
  41   23   53 1
  42   24   54 1
  43   25   26 1
  44   25   55 1
  45   25   56 1
  46   26   27 1
  47   26   31 1
  48   27   28 1
  49   27   57 1
  50   27   58 1
  51   28   29 1
  52   28   59 1
  53   28   60 1
  54   29   30 1
  55   29   32 1
  56   29   61 1
  57   30   31 1
  58   30   62 1
  59   30   63 1
  60   31   64 1
  61   31   65 1
  62   32   34 ar
  63   32   35 ar
  64   34   38 ar
  65   34   66 1
  66   35   36 ar
  67   36   37 ar
  68   36   67 1
  69   37   38 ar
  70   37   68 1
  71   38   69 1

#	End of record

