#	Name: ASD01812712
#	Creating user name:	WinNT
#	Creation time:	15. 06. 2019 19:29

#	Modifying user name:	WinNT
#	Modification time:	15. 06. 2019 19:29

#	Program:	/corina/corina34_cracker 3.40 0067  02.08.2006

@<TRIPOS>MOLECULE
ASD01812712
  54   58    0    0    0
SMALL
NO_CHARGES


@<TRIPOS>ATOM
   1 N1            -0.0158     1.3147     0.0093 N.ar    
   2 C2             0.0021    -0.0041     0.0020 C.ar    
   3 C3             1.1989    -0.7033    -0.0127 C.ar    
   4 C4             2.3829    -0.0013    -0.0202 C.ar    
   5 C5             2.3448     1.3978    -0.0128 C.ar    
   6 C6             1.0955     2.0332     0.0025 C.ar    
   7 C7             3.8373    -0.3889    -0.0363 C.3     
   8 N8             4.5955     0.8684    -0.0373 N.am    
   9 C9             3.7280     1.8961    -0.0237 C.2     
  10 C10            6.0558     0.9844    -0.0504 C.3     
  11 C11            6.5432     1.0311    -1.4757 C.ar    
  12 C12            6.4763     2.2162    -2.1897 C.ar    
  13 C13            6.9220     2.2630    -3.4977 C.ar    
  14 C14            7.4389     1.1162    -4.0955 C.ar    
  15 C15            7.5038    -0.0727    -3.3714 C.ar    
  16 C16            7.0611    -0.1080    -2.0646 C.ar    
  17 O17            1.0255     3.3856     0.0100 O.3     
  18 O18            4.0429     3.0706    -0.0212 O.2     
  19 C19           -0.2795     3.9677     0.0251 C.3     
  20 N20            7.9120     2.2142    -6.2874 N.2     
  21 C21            7.9185     1.1599    -5.4994 C.2     
  22 C22            8.4614     0.0808    -6.2235 C.2     
  23 C23            8.7747     0.5273    -7.4594 C.2     
  24 N24            8.4471     1.8357    -7.5253 N.pl3   
  25 C25           -0.2695     5.3342    -0.6907 C.3     
  26 C26           -1.2157     6.2527     0.1023 C.3     
  27 C27           -1.7677     5.4123     1.2723 C.3     
  28 C28           -0.7072     4.3019     1.4758 C.3     
  29 O29           -0.7398     5.1876    -2.0320 O.3     
  30 C30            8.6204     2.7077    -8.6897 C.3     
  31 F31            5.9745     3.3273    -1.6076 F       
  32 H32           -0.9309    -0.5480     0.0080 H       
  33 H33            1.2023    -1.7833    -0.0178 H       
  34 H34            4.0797    -0.9721     0.8522 H       
  35 H35            4.0624    -0.9631    -0.9351 H       
  36 H36            6.3524     1.8979     0.4651 H       
  37 H37            6.4932     0.1235     0.4552 H       
  38 H38            6.8692     3.1868    -4.0548 H       
  39 H39            7.9035    -0.9645    -3.8310 H       
  40 H40            7.1152    -1.0284    -1.5021 H       
  41 H41           -1.0006     3.2973    -0.4425 H       
  42 H42            8.6022    -0.9250    -5.8561 H       
  43 H43            9.2105    -0.0590    -8.2548 H       
  44 H44            0.7389     5.7480    -0.6912 H       
  45 H45           -0.6665     7.1123     0.4865 H       
  46 H46           -2.0337     6.5866    -0.5361 H       
  47 H47           -1.8584     6.0225     2.1708 H       
  48 H48           -2.7308     4.9760     1.0075 H       
  49 H49           -1.1485     3.4301     1.9589 H       
  50 H50            0.1391     4.6768     2.0514 H       
  51 H51           -0.7572     6.0132    -2.5352 H       
  52 H52            9.6037     3.1764    -8.6496 H       
  53 H53            8.5365     2.1168    -9.6018 H       
  54 H54            7.8499     3.4787    -8.6841 H       
@<TRIPOS>BOND
   1    1    2 ar
   2    1    6 ar
   3    2    3 ar
   4    2   32 1
   5    3    4 ar
   6    3   33 1
   7    4    7 1
   8    4    5 ar
   9    5    6 ar
  10    5    9 1
  11    6   17 1
  12    7    8 1
  13    7   34 1
  14    7   35 1
  15    8    9 am
  16    8   10 1
  17    9   18 2
  18   10   11 1
  19   10   36 1
  20   10   37 1
  21   11   12 ar
  22   11   16 ar
  23   12   13 ar
  24   12   31 1
  25   13   14 ar
  26   13   38 1
  27   14   15 ar
  28   14   21 1
  29   15   16 ar
  30   15   39 1
  31   16   40 1
  32   17   19 1
  33   19   25 1
  34   19   28 1
  35   19   41 1
  36   20   21 2
  37   20   24 1
  38   21   22 1
  39   22   23 2
  40   22   42 1
  41   23   24 1
  42   23   43 1
  43   24   30 1
  44   25   26 1
  45   25   29 1
  46   25   44 1
  47   26   27 1
  48   26   45 1
  49   26   46 1
  50   27   28 1
  51   27   47 1
  52   27   48 1
  53   28   49 1
  54   28   50 1
  55   29   51 1
  56   30   52 1
  57   30   53 1
  58   30   54 1

#	End of record

