#	Name: ASD03430333
#	Creating user name:	WinNT
#	Creation time:	15. 06. 2019 20:40

#	Modifying user name:	WinNT
#	Modification time:	15. 06. 2019 20:40

#	Program:	/corina/corina34_cracker 3.40 0067  02.08.2006

@<TRIPOS>MOLECULE
ASD03430333
  59   64    0    0    0
SMALL
NO_CHARGES


@<TRIPOS>ATOM
   1 C1            -0.0167     1.3806     0.0096 C.ar    
   2 C2             0.0021    -0.0041     0.0020 C.ar    
   3 C3             1.2035    -0.6814    -0.0133 C.ar    
   4 C4             2.4092     0.0135    -0.0098 C.ar    
   5 C5             2.3874     1.4049    -0.0074 C.ar    
   6 C6             1.1840     2.0869     0.0020 C.ar    
   7 O7             3.4719    -0.8412     0.0036 O.3     
   8 C8             1.5521    -2.1452    -0.0497 C.3     
   9 C9             3.0389    -2.1443    -0.4316 C.3     
  10 C10            0.4260    -3.8639     0.9986 C.ar    
  11 C11            1.3129    -2.8237     1.2663 C.ar    
  12 C12            0.7217    -2.9034    -1.0452 C.2     
  13 N13            0.1004    -3.8836    -0.3597 N.am    
  14 O14            0.6287    -2.6780    -2.2334 O.2     
  15 C15            1.7747    -2.6089     2.5453 C.ar    
  16 C16            1.3589    -3.4291     3.5794 C.ar    
  17 C17            0.4789    -4.4648     3.3251 C.ar    
  18 C18            0.0133    -4.6845     2.0450 C.ar    
  19 C19           -0.8104    -4.8564    -0.9683 C.3     
  20 O20           -1.0496     2.2737     0.0188 O.3     
  21 C21           -0.4709     3.5263     0.4302 C.3     
  22 O22            0.9023     3.4232     0.0055 O.3     
  23 C23           -2.2398    -4.3124    -0.9263 C.3     
  24 C24           -3.1737    -5.2697    -1.6719 C.3     
  25 C25           -4.6106    -4.7520    -1.5745 C.3     
  26 N26           -5.0033    -4.6570    -0.1627 N.3     
  27 C27           -4.1502    -3.7073     0.5630 C.3     
  28 C28           -2.6996    -4.1938     0.5294 C.3     
  29 C29           -6.4213    -4.2957    -0.0339 C.3     
  30 C30           -6.8239    -4.3282     1.4419 C.3     
  31 C31           -6.6417    -2.8882    -0.5917 C.3     
  32 H32           -0.9267    -0.5552     0.0085 H       
  33 H33            3.3162     1.9560    -0.0124 H       
  34 H34            3.1618    -2.2531    -1.5091 H       
  35 H35            3.5760    -2.9287     0.1016 H       
  36 H36            2.4619    -1.7993     2.7418 H       
  37 H37            1.7211    -3.2608     4.5829 H       
  38 H38            0.1548    -5.1051     4.1322 H       
  39 H39           -0.6739    -5.4954     1.8542 H       
  40 H40           -0.5178    -5.0296    -2.0039 H       
  41 H41           -0.7623    -5.7945    -0.4154 H       
  42 H42           -0.9635     4.3590    -0.0718 H       
  43 H43           -0.5329     3.6396     1.5126 H       
  44 H44           -2.2702    -3.3312    -1.4000 H       
  45 H45           -2.8772    -5.3252    -2.7193 H       
  46 H46           -3.1128    -6.2610    -1.2228 H       
  47 H47           -4.6737    -3.7666    -2.0361 H       
  48 H48           -5.2800    -5.4389    -2.0922 H       
  49 H49           -4.2155    -2.7268     0.0914 H       
  50 H50           -4.4853    -3.6355     1.5978 H       
  51 H51           -2.6313    -5.1682     1.0131 H       
  52 H52           -2.0644    -3.4807     1.0547 H       
  53 H53           -7.0297    -5.0072    -0.5922 H       
  54 H54           -6.2155    -3.6167     2.0002 H       
  55 H55           -7.8761    -4.0601     1.5374 H       
  56 H56           -6.6669    -5.3309     1.8393 H       
  57 H57           -6.3549    -2.8650    -1.6431 H       
  58 H58           -7.6939    -2.6201    -0.4962 H       
  59 H59           -6.0333    -2.1767    -0.0334 H       
@<TRIPOS>BOND
   1    1    2 ar
   2    1    6 ar
   3    1   20 1
   4    2    3 ar
   5    2   32 1
   6    3    4 ar
   7    3    8 1
   8    4    5 ar
   9    4    7 1
  10    5    6 ar
  11    5   33 1
  12    6   22 1
  13    7    9 1
  14    8    9 1
  15    8   11 1
  16    8   12 1
  17    9   34 1
  18    9   35 1
  19   10   11 ar
  20   10   13 1
  21   10   18 ar
  22   11   15 ar
  23   12   13 am
  24   12   14 2
  25   13   19 1
  26   15   16 ar
  27   15   36 1
  28   16   17 ar
  29   16   37 1
  30   17   18 ar
  31   17   38 1
  32   18   39 1
  33   19   23 1
  34   19   40 1
  35   19   41 1
  36   20   21 1
  37   21   22 1
  38   21   42 1
  39   21   43 1
  40   23   24 1
  41   23   28 1
  42   23   44 1
  43   24   25 1
  44   24   45 1
  45   24   46 1
  46   25   26 1
  47   25   47 1
  48   25   48 1
  49   26   27 1
  50   26   29 1
  51   27   28 1
  52   27   49 1
  53   27   50 1
  54   28   51 1
  55   28   52 1
  56   29   30 1
  57   29   31 1
  58   29   53 1
  59   30   54 1
  60   30   55 1
  61   30   56 1
  62   31   57 1
  63   31   58 1
  64   31   59 1

#	End of record

