#	Name: ASD08178512
#	Creating user name:	WinNT
#	Creation time:	15. 06. 2019 21:19

#	Modifying user name:	WinNT
#	Modification time:	15. 06. 2019 21:19

#	Program:	/corina/corina34_cracker 3.40 0067  02.08.2006

@<TRIPOS>MOLECULE
ASD08178512
  26   27    0    0    0
SMALL
NO_CHARGES


@<TRIPOS>ATOM
   1 C1            -0.0155     1.2890     0.0091 C.2     
   2 N2             0.0021    -0.0041     0.0020 N.2     
   3 S3             1.6567     1.8533    -0.0038 S.3     
   4 C4             2.1881     0.1703    -0.0179 C.2     
   5 N5             1.1237    -0.5802    -0.0118 N.2     
   6 C6            -1.2455     2.1595     0.0199 C.3     
   7 C7            -1.6544     2.4468     1.4660 C.3     
   8 C8            -3.4590     3.7214     3.2494 C.3     
   9 C9            -4.6804     4.5855     3.4299 C.2     
  10 N10           -5.9012     4.1687     3.5204 N.2     
  11 N11           -6.8104     5.0296     3.6701 N.2     
  12 C12           -6.4542     6.2812     3.7231 C.2     
  13 S13           -4.6976     6.3452     3.5631 S.3     
  14 N14           -7.3018     7.3674     3.8826 N.pl3   
  15 N15            3.5022    -0.2731    -0.0335 N.pl3   
  16 S16           -3.1351     3.4947     1.4790 S.3     
  17 H17           -1.0307     3.0985    -0.4903 H       
  18 H18           -2.0589     1.6455    -0.4923 H       
  19 H19           -1.8693     1.5078     1.9762 H       
  20 H20           -0.8410     2.9608     1.9783 H       
  21 H21           -2.6005     4.2035     3.7170 H       
  22 H22           -3.6287     2.7505     3.7149 H       
  23 H23           -8.2580     7.2282     3.9670 H       
  24 H24           -6.9383     8.2663     3.9098 H       
  25 H25            4.2303     0.3678    -0.0376 H       
  26 H26            3.6931    -1.2241    -0.0404 H       
@<TRIPOS>BOND
   1    1    2 2
   2    1    3 1
   3    1    6 1
   4    2    5 1
   5    3    4 1
   6    4    5 2
   7    4   15 1
   8    6    7 1
   9    6   17 1
  10    6   18 1
  11    7   16 1
  12    7   19 1
  13    7   20 1
  14    8    9 1
  15    8   16 1
  16    8   21 1
  17    8   22 1
  18    9   10 2
  19    9   13 1
  20   10   11 1
  21   11   12 2
  22   12   13 1
  23   12   14 1
  24   14   23 1
  25   14   24 1
  26   15   25 1
  27   15   26 1

#	End of record

