#	Name: ASD03090833
#	Creating user name:	WinNT
#	Creation time:	15. 06. 2019 20:29

#	Modifying user name:	WinNT
#	Modification time:	15. 06. 2019 20:29

#	Program:	/corina/corina34_cracker 3.40 0067  02.08.2006

@<TRIPOS>MOLECULE
ASD03090833
  46   49    0    0    0
SMALL
NO_CHARGES


@<TRIPOS>ATOM
   1 N1            -0.0190     1.4664    -0.0877 N.am    
   2 C2             0.0007    -0.0024    -0.1199 C.3     
   3 C3             0.8411    -0.4582    -1.3168 C.3     
   4 C4             2.2265     0.1874    -1.2377 C.3     
   5 C5             2.0858     1.7101    -1.2981 C.3     
   6 C6             1.2594     2.1904    -0.1009 C.3     
   7 C7            -1.1876     2.1369    -0.0523 C.2     
   8 O8            -2.2415     1.5246    -0.0468 O.2     
   9 N9            -1.1907     3.4726    -0.0233 N.2     
  10 S10           -3.9293     3.4605     0.0258 S.3     
  11 C11           -2.3448     4.1347     0.0116 C.2     
  12 N12           -2.5158     5.4805     0.0438 N.pl3   
  13 C13           -3.7978     5.9381     0.0770 C.2     
  14 C14           -4.7598     5.0250     0.0747 C.2     
  15 O15            1.8141     8.9317     0.0524 O.3     
  16 C16            1.5926    10.2654    -0.4187 C.3     
  17 C17            0.3061    10.7959     0.2286 C.3     
  18 O18           -0.7738     9.9358    -0.1506 O.3     
  19 C19           -0.5524     8.5963    -0.0530 C.ar    
  20 C20            0.7403     8.0941     0.0464 C.ar    
  21 C21           -1.6325     7.7278    -0.0529 C.ar    
  22 C22           -1.4230     6.3590     0.0434 C.ar    
  23 C23           -0.1312     5.8605     0.1398 C.ar    
  24 C24            0.9458     6.7259     0.1412 C.ar    
  25 F25            0.4434    10.7952     1.6208 F       
  26 F26            0.0535    12.0965    -0.2207 F       
  27 F27            2.6723    11.0787    -0.0580 F       
  28 F28            1.4517    10.2569    -1.8105 F       
  29 C29           -6.2469     5.2673     0.1074 C.3     
  30 H30            0.4414    -0.3822     0.8019 H       
  31 H31           -1.0168    -0.3793    -0.2232 H       
  32 H32            0.9437    -1.5432    -1.2973 H       
  33 H33            0.3509    -0.1552    -2.2420 H       
  34 H34            2.7062    -0.0961    -0.3009 H       
  35 H35            2.8348    -0.1546    -2.0750 H       
  36 H36            3.0742     2.1684    -1.2653 H       
  37 H37            1.5838     1.9927    -2.2235 H       
  38 H38            1.0724     3.2604    -0.1918 H       
  39 H39            1.8028     1.9894     0.8223 H       
  40 H40           -4.0207     6.9945     0.1039 H       
  41 H41           -2.6375     8.1161    -0.1286 H       
  42 H42            0.0321     4.7955     0.2137 H       
  43 H43            1.9501     6.3359     0.2159 H       
  44 H44           -6.7710     4.3116     0.0970 H       
  45 H45           -6.5061     5.8140     1.0141 H       
  46 H46           -6.5391     5.8514    -0.7652 H       
@<TRIPOS>BOND
   1    1    2 1
   2    1    6 1
   3    1    7 am
   4    2    3 1
   5    2   30 1
   6    2   31 1
   7    3    4 1
   8    3   32 1
   9    3   33 1
  10    4    5 1
  11    4   34 1
  12    4   35 1
  13    5    6 1
  14    5   36 1
  15    5   37 1
  16    6   38 1
  17    6   39 1
  18    7    8 2
  19    7    9 1
  20    9   11 2
  21   10   11 1
  22   10   14 1
  23   11   12 1
  24   12   13 1
  25   12   22 1
  26   13   14 2
  27   13   40 1
  28   14   29 1
  29   15   16 1
  30   15   20 1
  31   16   17 1
  32   16   27 1
  33   16   28 1
  34   17   18 1
  35   17   25 1
  36   17   26 1
  37   18   19 1
  38   19   20 ar
  39   19   21 ar
  40   20   24 ar
  41   21   22 ar
  42   21   41 1
  43   22   23 ar
  44   23   24 ar
  45   23   42 1
  46   24   43 1
  47   29   44 1
  48   29   45 1
  49   29   46 1

#	End of record

