#	Name: ASD01884424
#	Creating user name:	WinNT
#	Creation time:	15. 06. 2019 19:48

#	Modifying user name:	WinNT
#	Modification time:	15. 06. 2019 19:48

#	Program:	/corina/corina34_cracker 3.40 0067  02.08.2006

@<TRIPOS>MOLECULE
ASD01884424
  47   49    0    0    0
SMALL
NO_CHARGES


@<TRIPOS>ATOM
   1 C1            -0.0164     1.3575     0.0095 C.2     
   2 C2             0.0021    -0.0041     0.0020 C.2     
   3 C3             1.2441    -0.6750    -0.0134 C.2     
   4 C4             2.4025     0.0467    -0.0206 C.2     
   5 N5             2.3701     1.4021    -0.0126 N.am    
   6 C6             1.1988     2.0651     0.0017 C.2     
   7 C7             1.2900    -2.1582    -0.0214 C.ar    
   8 C8             3.6267     2.1552    -0.0196 C.3     
   9 O9             1.1913     3.2854     0.0083 O.2     
  10 C10            4.0449     2.4215    -1.4427 C.ar    
  11 C11            3.6213     3.5705    -2.0840 C.ar    
  12 C12            4.0048     3.8148    -3.3894 C.ar    
  13 C13            4.8122     2.9103    -4.0534 C.ar    
  14 C14            5.2365     1.7618    -3.4118 C.ar    
  15 C15            4.8566     1.5196    -2.1049 C.ar    
  16 C16            0.8131    -2.8784     1.0721 C.ar    
  17 C17            1.8047    -2.8360    -1.1247 C.ar    
  18 C18            1.8445    -4.2156    -1.1268 C.ar    
  19 C19            1.3742    -4.9253    -0.0367 C.ar    
  20 C20            0.8577    -4.2578     1.0592 C.ar    
  21 Si21           1.4308    -6.7924    -0.0472 Si      
  22 C22            3.0511    -7.3687     0.6692 C.3     
  23 C23            0.0259    -7.4621     0.9768 C.3     
  24 C24            1.2718    -7.4087    -1.7981 C.3     
  25 H25           -0.9563     1.8894     0.0168 H       
  26 H26           -0.9217    -0.5636     0.0082 H       
  27 H27            3.3529    -0.4662    -0.0325 H       
  28 H28            3.4856     3.1024     0.5010 H       
  29 H29            4.4004     1.5756     0.4840 H       
  30 H30            2.9905     4.2772    -1.5653 H       
  31 H31            3.6733     4.7122    -3.8907 H       
  32 H32            5.1113     3.1008    -5.0735 H       
  33 H33            5.8670     1.0549    -3.9306 H       
  34 H34            5.1880     0.6222    -1.6036 H       
  35 H35            0.4096    -2.3581     1.9282 H       
  36 H36            2.1716    -2.2828    -1.9766 H       
  37 H37            2.2433    -4.7419    -1.9814 H       
  38 H38            0.4919    -4.8168     1.9077 H       
  39 H39            3.1441    -7.0081     1.6936 H       
  40 H40            3.0841    -8.4582     0.6631 H       
  41 H41            3.8731    -6.9769     0.0701 H       
  42 H42           -0.9221    -7.1249     0.5577 H       
  43 H43            0.0589    -8.5515     0.9707 H       
  44 H44            0.1189    -7.1015     2.0012 H       
  45 H45            2.0938    -7.0170    -2.3972 H       
  46 H46            1.3048    -8.4982    -1.8042 H       
  47 H47            0.3238    -7.0716    -2.2173 H       
@<TRIPOS>BOND
   1    1    2 2
   2    1    6 1
   3    1   25 1
   4    2    3 1
   5    2   26 1
   6    3    4 2
   7    3    7 1
   8    4    5 1
   9    4   27 1
  10    5    6 am
  11    5    8 1
  12    6    9 2
  13    7   16 ar
  14    7   17 ar
  15    8   10 1
  16    8   28 1
  17    8   29 1
  18   10   11 ar
  19   10   15 ar
  20   11   12 ar
  21   11   30 1
  22   12   13 ar
  23   12   31 1
  24   13   14 ar
  25   13   32 1
  26   14   15 ar
  27   14   33 1
  28   15   34 1
  29   16   20 ar
  30   16   35 1
  31   17   18 ar
  32   17   36 1
  33   18   19 ar
  34   18   37 1
  35   19   20 ar
  36   19   21 1
  37   20   38 1
  38   21   22 1
  39   21   23 1
  40   21   24 1
  41   22   39 1
  42   22   40 1
  43   22   41 1
  44   23   42 1
  45   23   43 1
  46   23   44 1
  47   24   45 1
  48   24   46 1
  49   24   47 1

#	End of record

