#	Name: ASD01920047
#	Creating user name:	WinNT
#	Creation time:	15. 06. 2019 20:11

#	Modifying user name:	WinNT
#	Modification time:	15. 06. 2019 20:11

#	Program:	/corina/corina34_cracker 3.40 0067  02.08.2006

@<TRIPOS>MOLECULE
ASD01920047
  58   60    0    0    0
SMALL
NO_CHARGES


@<TRIPOS>ATOM
   1 N1             0.5655     0.5301     0.3716 N.pl3   
   2 C2             0.4637    -0.8337     0.3528 C.2     
   3 C3            -0.8339    -1.1781     0.3159 C.2     
   4 C4            -1.5973     0.0776     0.3114 C.2     
   5 C5            -0.6597     1.0919     0.3530 C.2     
   6 C6             1.6229    -1.7965     0.3704 C.3     
   7 C7            -0.9553     2.5695     0.3653 C.3     
   8 C8             1.7688     1.2403     0.4105 C.ar    
   9 C9            -3.0539     0.2241     0.2756 C.2     
  10 O10           -3.5526     1.3303     0.2757 O.2     
  11 C11           -3.9335    -0.9990     0.2385 C.3     
  12 S12           -5.6744    -0.4908     0.1996 S.3     
  13 C13           -6.5352    -2.0278     0.1594 C.ar    
  14 C14           -7.9241    -2.0457     0.1233 C.ar    
  15 C15            2.6522     1.1673    -0.6611 C.ar    
  16 C16            3.8385     1.8655    -0.6265 C.ar    
  17 C17            4.1541     2.6486     0.4874 C.ar    
  18 C18            3.2635     2.7198     1.5622 C.ar    
  19 C19            2.0769     2.0226     1.5182 C.ar    
  20 C20            5.4244     3.3978     0.5286 C.2     
  21 O21            6.1976     3.3345    -0.4064 O.2     
  22 O22            5.7269     4.1523     1.6032 O.3     
  23 C23            6.9935     4.8618     1.5750 C.3     
  24 C24           -8.5980    -3.2500     0.0919 C.ar    
  25 C25           -7.8881    -4.4435     0.0967 C.ar    
  26 C26           -6.5000    -4.4260     0.1327 C.ar    
  27 C27           -5.8251    -3.2221     0.1579 C.ar    
  28 N28           -8.5727    -5.6660     0.0657 N.am    
  29 C29           -7.8900    -6.8168    -0.0954 C.2     
  30 O30           -6.6979    -6.7888    -0.3180 O.2     
  31 C31           -8.6076    -8.1385     0.0010 C.3     
  32 C32          -10.0305    -5.6929     0.2084 C.3     
  33 H33           -1.2367    -2.1800     0.2935 H       
  34 H34            1.8768    -2.0409     1.4019 H       
  35 H35            1.3470    -2.7072    -0.1614 H       
  36 H36            2.4835    -1.3380    -0.1167 H       
  37 H37           -1.0569     2.9112     1.3954 H       
  38 H38           -0.1391     3.1074    -0.1170 H       
  39 H39           -1.8837     2.7588    -0.1735 H       
  40 H40           -3.7056    -1.5836    -0.6528 H       
  41 H41           -3.7515    -1.6044     1.1265 H       
  42 H42           -8.4763    -1.1176     0.1203 H       
  43 H43            2.4076     0.5619    -1.5215 H       
  44 H44            4.5244     1.8078    -1.4587 H       
  45 H45            3.5042     3.3237     2.4247 H       
  46 H46            1.3881     2.0774     2.3482 H       
  47 H47            7.8094     4.1451     1.4812 H       
  48 H48            7.0091     5.5436     0.7247 H       
  49 H49            7.1127     5.4293     2.4980 H       
  50 H50           -9.6775    -3.2641     0.0639 H       
  51 H51           -5.9483    -5.3545     0.1368 H       
  52 H52           -4.7455    -3.2086     0.1856 H       
  53 H53           -9.6783    -7.9637     0.1068 H       
  54 H54           -8.4218    -8.7195    -0.9023 H       
  55 H55           -8.2417    -8.6881     0.8683 H       
  56 H56          -10.4938    -5.5499    -0.7678 H       
  57 H57          -10.3376    -6.6548     0.6189 H       
  58 H58          -10.3446    -4.8942     0.8802 H       
@<TRIPOS>BOND
   1    1    2 1
   2    1    8 1
   3    1    5 1
   4    2    3 2
   5    2    6 1
   6    3    4 1
   7    3   33 1
   8    4    5 2
   9    4    9 1
  10    5    7 1
  11    6   34 1
  12    6   35 1
  13    6   36 1
  14    7   37 1
  15    7   38 1
  16    7   39 1
  17    8   15 ar
  18    8   19 ar
  19    9   10 2
  20    9   11 1
  21   11   12 1
  22   11   40 1
  23   11   41 1
  24   12   13 1
  25   13   14 ar
  26   13   27 ar
  27   14   24 ar
  28   14   42 1
  29   15   16 ar
  30   15   43 1
  31   16   17 ar
  32   16   44 1
  33   17   18 ar
  34   17   20 1
  35   18   19 ar
  36   18   45 1
  37   19   46 1
  38   20   21 2
  39   20   22 1
  40   22   23 1
  41   23   47 1
  42   23   48 1
  43   23   49 1
  44   24   25 ar
  45   24   50 1
  46   25   26 ar
  47   25   28 1
  48   26   27 ar
  49   26   51 1
  50   27   52 1
  51   28   29 am
  52   28   32 1
  53   29   30 2
  54   29   31 1
  55   31   53 1
  56   31   54 1
  57   31   55 1
  58   32   56 1
  59   32   57 1
  60   32   58 1

#	End of record

