#	Name: ASD01209220
#	Creating user name:	WinNT
#	Creation time:	15. 06. 2019 19:11

#	Modifying user name:	WinNT
#	Modification time:	15. 06. 2019 19:11

#	Program:	/corina/corina34_cracker 3.40 0067  02.08.2006

@<TRIPOS>MOLECULE
ASD01209220
  70   73    0    0    0
SMALL
NO_CHARGES


@<TRIPOS>ATOM
   1 O1            -0.0173     1.4248     0.0099 O.3     
   2 O2             2.1367     2.0777     1.3686 O.3     
   3 N3             1.8233     5.9573    -7.5013 N.2     
   4 C4             0.5513     5.7502    -7.2355 C.2     
   5 C5            -0.0291     5.3734    -5.9347 C.2     
   6 N6             0.7707     5.2066    -4.8628 N.am    
   7 O7            -1.2300     5.2130    -5.8282 O.2     
   8 C8             0.2236     4.8514    -3.6366 C.2     
   9 P9             1.3209     2.3199     0.0019 P.3     
  10 O10            2.1650     1.9351    -1.1513 O.2     
  11 C11            0.8726     4.0817    -0.1342 C.3     
  12 N12            0.9010     4.6665    -2.5468 N.2     
  13 S13           -1.4420     4.6016    -3.3429 S.3     
  14 C14           -1.0997     4.2310    -1.6550 C.2     
  15 C15            0.2177     4.3319    -1.4682 C.2     
  16 C16           -0.1751     5.9702    -8.4931 C.ar    
  17 C17            0.8286     6.3062    -9.4225 C.ar    
  18 N18            2.0115     6.2736    -8.7312 N.pl3   
  19 C19           -1.5069     5.9167    -8.8940 C.ar    
  20 C20           -1.8307     6.1925   -10.1934 C.ar    
  21 C21           -0.8426     6.5237   -11.1116 C.ar    
  22 C22            0.4711     6.5818   -10.7385 C.ar    
  23 S23           -1.2885     6.8737   -12.7799 S.o2    
  24 O24           -0.1224     6.5580   -13.5280 O.2     
  25 O25           -2.5007     6.1585   -12.9760 O.2     
  26 C26           -1.5938     8.6617   -12.8012 C.3     
  27 C27            2.7182     0.8193     1.7153 C.3     
  28 C28            3.4161     0.9364     3.0718 C.3     
  29 C29            0.0021    -0.0041     0.0020 C.3     
  30 C30           -1.4333    -0.5336     0.0129 C.3     
  31 C31            3.3217     6.5620    -9.3199 C.3     
  32 C32            3.6165     8.0344    -9.1926 C.ar    
  33 C33            4.2713     8.5140    -8.0736 C.ar    
  34 C34            4.5417     9.8646    -7.9568 C.ar    
  35 C35            4.1576    10.7355    -8.9592 C.ar    
  36 C36            3.5036    10.2558   -10.0786 C.ar    
  37 C37            3.2371     8.9046   -10.1974 C.ar    
  38 S38            4.5012    12.4572    -8.8099 S.o2    
  39 O39            3.5010    13.0841    -9.6009 O.2     
  40 O40            4.5731    12.6799    -7.4083 O.2     
  41 C41            6.1351    12.6605    -9.5713 C.3     
  42 H42            1.7285     5.3345    -4.9477 H       
  43 H43            0.1796     4.3431     0.6655 H       
  44 H44            1.7713     4.6928    -0.0503 H       
  45 H45           -1.8291     3.9715    -0.9020 H       
  46 H46           -2.2788     5.6590    -8.1840 H       
  47 H47           -2.8630     6.1521   -10.5084 H       
  48 H48            1.2290     6.8407   -11.4630 H       
  49 H49           -0.6874     9.1886   -12.5032 H       
  50 H50           -1.8790     8.9696   -13.8072 H       
  51 H51           -2.3985     8.9012   -12.1061 H       
  52 H52            1.9368     0.0615     1.7729 H       
  53 H53            3.4459     0.5337     0.9558 H       
  54 H54            4.1975     1.6941     3.0142 H       
  55 H55            2.6884     1.2220     3.8314 H       
  56 H56            3.8596    -0.0235     3.3363 H       
  57 H57            0.5123    -0.3556    -0.8948 H       
  58 H58            0.5293    -0.3651     0.8851 H       
  59 H59           -1.4185    -1.6235     0.0069 H       
  60 H60           -1.9435    -0.1821     0.9097 H       
  61 H61           -1.9605    -0.1726    -0.8702 H       
  62 H62            4.0888     5.9913    -8.7964 H       
  63 H63            3.3162     6.2823   -10.3734 H       
  64 H64            4.5713     7.8335    -7.2904 H       
  65 H65            5.0526    10.2394    -7.0823 H       
  66 H66            3.2033    10.9363   -10.8616 H       
  67 H67            2.7262     8.5298   -11.0720 H       
  68 H68            6.0924    12.3429   -10.6132 H       
  69 H69            6.4308    13.7085    -9.5227 H       
  70 H70            6.8638    12.0521    -9.0356 H       
@<TRIPOS>BOND
   1    1   29 1
   2    1    9 1
   3    2   27 1
   4    2    9 1
   5    3    4 2
   6    3   18 1
   7    4    5 1
   8    4   16 1
   9    5    6 am
  10    5    7 2
  11    6    8 1
  12    6   42 1
  13    8   12 2
  14    8   13 1
  15    9   10 2
  16    9   11 1
  17   11   15 1
  18   11   43 1
  19   11   44 1
  20   12   15 1
  21   13   14 1
  22   14   15 2
  23   14   45 1
  24   16   17 ar
  25   16   19 ar
  26   17   18 1
  27   17   22 ar
  28   18   31 1
  29   19   20 ar
  30   19   46 1
  31   20   21 ar
  32   20   47 1
  33   21   22 ar
  34   21   23 1
  35   22   48 1
  36   23   24 2
  37   23   25 2
  38   23   26 1
  39   26   49 1
  40   26   50 1
  41   26   51 1
  42   27   28 1
  43   27   52 1
  44   27   53 1
  45   28   54 1
  46   28   55 1
  47   28   56 1
  48   29   30 1
  49   29   57 1
  50   29   58 1
  51   30   59 1
  52   30   60 1
  53   30   61 1
  54   31   32 1
  55   31   62 1
  56   31   63 1
  57   32   33 ar
  58   32   37 ar
  59   33   34 ar
  60   33   64 1
  61   34   35 ar
  62   34   65 1
  63   35   36 ar
  64   35   38 1
  65   36   37 ar
  66   36   66 1
  67   37   67 1
  68   38   39 2
  69   38   40 2
  70   38   41 1
  71   41   68 1
  72   41   69 1
  73   41   70 1

#	End of record

