#	Name: ASD01914531
#	Creating user name:	WinNT
#	Creation time:	15. 06. 2019 20:03

#	Modifying user name:	WinNT
#	Modification time:	15. 06. 2019 20:03

#	Program:	/corina/corina34_cracker 3.40 0067  02.08.2006

@<TRIPOS>MOLECULE
ASD01914531
  34   36    0    0    0
SMALL
NO_CHARGES


@<TRIPOS>ATOM
   1 C1            -0.0187     1.3694    -0.1318 C.ar    
   2 C2             0.0041    -0.0151    -0.1887 C.ar    
   3 N3             1.1359    -0.6876    -0.1926 N.ar    
   4 C4             2.3119    -0.0766    -0.1428 C.ar    
   5 C5             2.3630     1.3283    -0.0840 C.ar    
   6 C6             1.1761     2.0638    -0.0782 C.ar    
   7 O7             3.5782    -0.5375    -0.1357 O.3     
   8 C8             4.4688     0.4786    -0.0755 C.2     
   9 C9             3.7861     1.6810    -0.0402 C.2     
  10 C10            5.8748     0.3345    -0.0520 C.2     
  11 C11            6.4785    -1.0117     0.0469 C.ar    
  12 C12            7.8608    -1.1701    -0.0713 C.ar    
  13 C13            5.6689    -2.1283     0.2646 C.ar    
  14 C14            6.2368    -3.3810     0.3565 C.ar    
  15 C15            7.6095    -3.5333     0.2335 C.ar    
  16 C16            8.4185    -2.4272     0.0221 C.ar    
  17 O17            6.5894     1.3197    -0.1133 O.2     
  18 N18            4.3314     2.9507     0.0226 N.pl3   
  19 C19            1.1965     3.5694    -0.0164 C.3     
  20 C20           -1.2992    -0.7696    -0.2470 C.3     
  21 F21            8.1612    -4.7631     0.3253 F       
  22 H22           -0.9591     1.9004    -0.1338 H       
  23 H23            8.4918    -0.3092    -0.2360 H       
  24 H24            4.5997    -2.0107     0.3612 H       
  25 H25            5.6115    -4.2453     0.5248 H       
  26 H26            9.4871    -2.5513    -0.0733 H       
  27 H27            5.2944     3.0643     0.0469 H       
  28 H28            3.7508     3.7275     0.0423 H       
  29 H29            1.2223     3.9743    -1.0281 H       
  30 H30            0.3012     3.9242     0.4942 H       
  31 H31            2.0806     3.8987     0.5294 H       
  32 H32           -1.5920    -0.9090    -1.2876 H       
  33 H33           -1.1775    -1.7423     0.2296 H       
  34 H34           -2.0705    -0.2033     0.2748 H       
@<TRIPOS>BOND
   1    1    2 ar
   2    1    6 ar
   3    1   22 1
   4    2    3 ar
   5    2   20 1
   6    3    4 ar
   7    4    5 ar
   8    4    7 1
   9    5    6 ar
  10    5    9 1
  11    6   19 1
  12    7    8 1
  13    8    9 2
  14    8   10 1
  15    9   18 1
  16   10   11 1
  17   10   17 2
  18   11   12 ar
  19   11   13 ar
  20   12   16 ar
  21   12   23 1
  22   13   14 ar
  23   13   24 1
  24   14   15 ar
  25   14   25 1
  26   15   16 ar
  27   15   21 1
  28   16   26 1
  29   18   27 1
  30   18   28 1
  31   19   29 1
  32   19   30 1
  33   19   31 1
  34   20   32 1
  35   20   33 1
  36   20   34 1

#	End of record

