#	Name: ASD00131013
#	Creating user name:	WinNT
#	Creation time:	15. 06. 2019 18:31

#	Modifying user name:	WinNT
#	Modification time:	15. 06. 2019 18:31

#	Program:	/corina/corina34_cracker 3.40 0067  02.08.2006

@<TRIPOS>MOLECULE
ASD00131013
  68   73    0    0    0
SMALL
NO_CHARGES


@<TRIPOS>ATOM
   1 N1             1.3408     1.2879    -1.2780 N.am    
   2 C2             1.4725    -0.0491    -1.2485 C.2     
   3 C3             1.2849    -0.7946    -0.0046 C.2     
   4 C4             0.9652    -0.0970     1.1626 C.2     
   5 C5             0.8315     1.3614     1.0857 C.ar    
   6 C6             0.5121     2.1085     2.2254 C.ar    
   7 C7             0.3911     3.4659     2.1360 C.ar    
   8 C8             0.5825     4.1117     0.9223 C.ar    
   9 C9             0.8976     3.3961    -0.2123 C.ar    
  10 C10            1.0259     2.0111    -0.1460 C.ar    
  11 C11            1.4301    -2.2554     0.0171 C.2     
  12 O12            2.5379    -2.7573    -0.0190 O.2     
  13 N13            0.3362    -3.0405     0.0770 N.am    
  14 O14            1.7515    -0.6482    -2.2718 O.2     
  15 C15            1.5428     1.9967    -2.5441 C.3     
  16 C16            2.9619     1.7367    -3.0534 C.3     
  17 C17            0.5307     1.4955    -3.5763 C.3     
  18 O18            0.7837    -0.7482     2.3304 O.3     
  19 N19           -1.0411    -6.3838     0.1817 N.3     
  20 C20           -0.7716    -5.1074     0.8687 C.3     
  21 C21            0.4828    -4.4917     0.2138 C.3     
  22 C22            0.5196    -5.1730    -1.1796 C.3     
  23 C23           -0.0002    -6.5938    -0.8469 C.3     
  24 C24           -2.2334    -7.3063     2.1116 C.3     
  25 C25           -1.0704    -7.4998     1.1366 C.3     
  26 C26           -1.2545    -8.8156     0.3778 C.3     
  27 C27           -1.2849    -9.9778     1.3724 C.3     
  28 C28           -2.4480    -9.7844     2.3474 C.3     
  29 C29           -3.7647    -9.7444     1.5692 C.3     
  30 C30           -3.7342    -8.5821     0.5747 C.3     
  31 C31           -3.5501    -7.2664     1.3334 C.3     
  32 C32           -2.2639    -8.4686     3.1062 C.3     
  33 C33           -2.5712    -8.7756    -0.4004 C.3     
  34 H34            0.3614     1.6127     3.1730 H       
  35 H35            0.1442     4.0412     3.0161 H       
  36 H36            0.4832     5.1856     0.8666 H       
  37 H37            1.0441     3.9086    -1.1516 H       
  38 H38           -0.5481    -2.6446     0.0296 H       
  39 H39            1.4030     3.0664    -2.3879 H       
  40 H40            3.1016     0.6671    -3.2096 H       
  41 H41            3.1122     2.2641    -3.9954 H       
  42 H42            3.6829     2.0938    -2.3180 H       
  43 H43            0.6810     2.0229    -4.5183 H       
  44 H44            0.6704     0.4259    -3.7324 H       
  45 H45           -0.4803     1.6807    -3.2134 H       
  46 H46            0.8184    -1.7114     2.2532 H       
  47 H47           -1.6208    -4.4349     0.7482 H       
  48 H48           -0.5862    -5.2882     1.9275 H       
  49 H49            1.3764    -4.7350     0.7885 H       
  50 H50           -0.1461    -4.6675    -1.8791 H       
  51 H51            1.5370    -5.2107    -1.5690 H       
  52 H52            0.8067    -7.2098    -0.4500 H       
  53 H53           -0.4314    -7.0575    -1.7342 H       
  54 H54           -2.1023    -6.3689     2.6522 H       
  55 H55           -0.1323    -7.5282     1.6910 H       
  56 H56           -0.4259    -8.9534    -0.3168 H       
  57 H57           -1.4161   -10.9152     0.8318 H       
  58 H58           -0.3469   -10.0063     1.9268 H       
  59 H59           -2.4697   -10.6124     3.0560 H       
  60 H60           -3.8958   -10.6818     1.0287 H       
  61 H61           -4.5933    -9.6066     2.2639 H       
  62 H62           -4.6723    -8.5537     0.0203 H       
  63 H63           -4.3787    -7.1285     2.0281 H       
  64 H64           -3.5284    -6.4383     0.6249 H       
  65 H65           -1.3259    -8.4970     3.6606 H       
  66 H66           -3.0925    -8.3307     3.8008 H       
  67 H67           -2.5495    -7.9476    -1.1089 H       
  68 H68           -2.7023    -9.7130    -0.9409 H       
@<TRIPOS>BOND
   1    1    2 am
   2    1   10 1
   3    1   15 1
   4    2    3 1
   5    2   14 2
   6    3    4 2
   7    3   11 1
   8    4    5 1
   9    4   18 1
  10    5    6 ar
  11    5   10 ar
  12    6    7 ar
  13    6   34 1
  14    7    8 ar
  15    7   35 1
  16    8    9 ar
  17    8   36 1
  18    9   10 ar
  19    9   37 1
  20   11   12 2
  21   11   13 am
  22   13   21 1
  23   13   38 1
  24   15   16 1
  25   15   17 1
  26   15   39 1
  27   16   40 1
  28   16   41 1
  29   16   42 1
  30   17   43 1
  31   17   44 1
  32   17   45 1
  33   18   46 1
  34   19   20 1
  35   19   23 1
  36   19   25 1
  37   20   21 1
  38   20   47 1
  39   20   48 1
  40   21   22 1
  41   21   49 1
  42   22   23 1
  43   22   50 1
  44   22   51 1
  45   23   52 1
  46   23   53 1
  47   24   25 1
  48   24   31 1
  49   24   32 1
  50   24   54 1
  51   25   26 1
  52   25   55 1
  53   26   27 1
  54   26   33 1
  55   26   56 1
  56   27   28 1
  57   27   57 1
  58   27   58 1
  59   28   29 1
  60   28   32 1
  61   28   59 1
  62   29   30 1
  63   29   60 1
  64   29   61 1
  65   30   31 1
  66   30   33 1
  67   30   62 1
  68   31   63 1
  69   31   64 1
  70   32   65 1
  71   32   66 1
  72   33   67 1
  73   33   68 1

#	End of record

