#	Name: ASD03092142
#	Creating user name:	WinNT
#	Creation time:	15. 06. 2019 20:32

#	Modifying user name:	WinNT
#	Modification time:	15. 06. 2019 20:32

#	Program:	/corina/corina34_cracker 3.40 0067  02.08.2006

@<TRIPOS>MOLECULE
ASD03092142
  52   54    0    0    0
SMALL
NO_CHARGES


@<TRIPOS>ATOM
   1 N1            -0.2159     1.4415    -0.4252 N.pl3   
   2 C2            -0.1608     0.0804    -0.4815 C.2     
   3 C3            -1.4065    -0.3923    -0.1812 C.2     
   4 C4            -2.2354     0.7100     0.0627 C.2     
   5 N5            -1.5232     1.8042    -0.0770 N.2     
   6 N6            -3.5924     0.6543     0.4034 N.pl3   
   7 C7            -4.3366     1.8324     0.5022 C.ar    
   8 C8            -4.0048     2.9326    -0.2789 C.ar    
   9 C9            -4.7410     4.0975    -0.1809 C.ar    
  10 C10           -5.8081     4.1721     0.6938 C.ar    
  11 C11           -5.4125     1.9038     1.3772 C.ar    
  12 C12            1.0296    -0.7348    -0.8087 C.ar    
  13 C13            0.8962     2.3610    -0.6779 C.3     
  14 C14            2.0938    -0.1921    -1.5409 C.ar    
  15 C15            3.1853    -0.9832    -1.8258 C.ar    
  16 N16            3.2399    -2.2382    -1.4198 N.ar    
  17 C17            2.2579    -2.7936    -0.7253 C.ar    
  18 C18            1.1250    -2.0641    -0.3909 C.ar    
  19 C19           -6.1443     3.0762     1.4768 C.ar    
  20 C20            0.8367     2.8473    -2.1274 C.3     
  21 N21            2.3654    -4.1201    -0.3222 N.pl3   
  22 C22            1.2842    -4.7421     0.4462 C.3     
  23 C23            1.6513    -6.1939     0.7597 C.3     
  24 O24            0.7984     3.4807     0.2045 O.3     
  25 C25           -4.3792     5.2893    -1.0292 C.3     
  26 F26           -5.0751     5.2275    -2.2413 F       
  27 F27           -4.7236     6.4647    -0.3532 F       
  28 F28           -3.0030     5.2822    -1.2807 F       
  29 O29           -7.1939     3.1515     2.3368 O.3     
  30 C30           -7.4829     1.9859     3.1112 C.3     
  31 H31           -1.6999    -1.4308    -0.1393 H       
  32 H32           -4.0157    -0.2022     0.5708 H       
  33 H33           -3.1708     2.8771    -0.9629 H       
  34 H34           -6.3812     5.0844     0.7686 H       
  35 H35           -5.6756     1.0486     1.9821 H       
  36 H36            1.8407     1.8447    -0.5063 H       
  37 H37            2.0588     0.8333    -1.8779 H       
  38 H38            4.0085    -0.5705    -2.3902 H       
  39 H39            0.3264    -2.5198     0.1757 H       
  40 H40           -0.1078     3.3636    -2.2989 H       
  41 H41            1.6642     3.5314    -2.3153 H       
  42 H42            0.9114     1.9932    -2.8004 H       
  43 H43            3.1563    -4.6335    -0.5497 H       
  44 H44            1.1389    -4.1948     1.3775 H       
  45 H45            0.3636    -4.7179    -0.1369 H       
  46 H46            2.5719    -6.2182     1.3428 H       
  47 H47            0.8469    -6.6568     1.3314 H       
  48 H48            1.7966    -6.7412    -0.1717 H       
  49 H49           -0.0191     3.9880     0.1071 H       
  50 H50           -8.3413     2.1805     3.7542 H       
  51 H51           -7.7096     1.1538     2.4446 H       
  52 H52           -6.6184     1.7342     3.7255 H       
@<TRIPOS>BOND
   1    1    2 1
   2    1   13 1
   3    1    5 1
   4    2    3 2
   5    2   12 1
   6    3    4 1
   7    3   31 1
   8    4    5 2
   9    4    6 1
  10    6    7 1
  11    6   32 1
  12    7    8 ar
  13    7   11 ar
  14    8    9 ar
  15    8   33 1
  16    9   10 ar
  17    9   25 1
  18   10   19 ar
  19   10   34 1
  20   11   19 ar
  21   11   35 1
  22   12   14 ar
  23   12   18 ar
  24   13   20 1
  25   13   24 1
  26   13   36 1
  27   14   15 ar
  28   14   37 1
  29   15   16 ar
  30   15   38 1
  31   16   17 ar
  32   17   18 ar
  33   17   21 1
  34   18   39 1
  35   19   29 1
  36   20   40 1
  37   20   41 1
  38   20   42 1
  39   21   22 1
  40   21   43 1
  41   22   23 1
  42   22   44 1
  43   22   45 1
  44   23   46 1
  45   23   47 1
  46   23   48 1
  47   24   49 1
  48   25   26 1
  49   25   27 1
  50   25   28 1
  51   29   30 1
  52   30   50 1
  53   30   51 1
  54   30   52 1

#	End of record

