#	Name: ASD08070270
#	Creating user name:	WinNT
#	Creation time:	15. 06. 2019 21:14

#	Modifying user name:	WinNT
#	Modification time:	15. 06. 2019 21:14

#	Program:	/corina/corina34_cracker 3.40 0067  02.08.2006

@<TRIPOS>MOLECULE
ASD08070270
  45   47    0    0    0
SMALL
NO_CHARGES


@<TRIPOS>ATOM
   1 O1            -0.0174     1.4354     0.0099 O.3     
   2 C2             0.0021    -0.0041     0.0020 C.3     
   3 O3             1.2438    -0.3266    -0.6516 O.3     
   4 C4             2.0691     0.7335    -0.4081 C.ar    
   5 C5             1.2912     1.8185    -0.0005 C.ar    
   6 C6             3.4405     0.8644    -0.5021 C.ar    
   7 C7             4.0472     2.0838    -0.1884 C.ar    
   8 C8             3.2633     3.1655     0.2189 C.ar    
   9 C9             1.8951     3.0290     0.3108 C.ar    
  10 C10            5.5130     2.2278    -0.2870 C.2     
  11 O11            6.1940     1.2850    -0.6414 O.2     
  12 N12            6.0963     3.4045     0.0159 N.am    
  13 C13            7.5510     3.5474    -0.0820 C.3     
  14 C14            7.9336     3.8958    -1.5218 C.3     
  15 C15            7.5792     2.7252    -2.4411 C.3     
  16 C16            7.9617     3.0735    -3.8810 C.3     
  17 C17            8.0108     4.6473     0.8400 C.ar    
  18 C18            9.1776     4.4963     1.5664 C.ar    
  19 C19            9.6012     5.5030     2.4122 C.ar    
  20 C20            8.8548     6.6662     2.5326 C.ar    
  21 C21            7.6845     6.8153     1.8027 C.ar    
  22 C22            7.2681     5.8079     0.9539 C.ar    
  23 O23            9.2692     7.6578     3.3644 O.3     
  24 C24            8.4510     8.8270     3.4381 C.3     
  25 H25           -0.0068    -0.3927     1.0203 H       
  26 H26           -0.8422    -0.3953    -0.5656 H       
  27 H27            4.0435     0.0256    -0.8171 H       
  28 H28            3.7294     4.1089     0.4620 H       
  29 H29            1.2906     3.8668     0.6257 H       
  30 H30            5.5530     4.1566     0.2986 H       
  31 H31            8.0283     2.6102     0.2042 H       
  32 H32            7.3872     4.7844    -1.8381 H       
  33 H33            9.0048     4.0893    -1.5765 H       
  34 H34            8.1255     1.8366    -2.1249 H       
  35 H35            6.5079     2.5317    -2.3864 H       
  36 H36            7.4154     3.9622    -4.1972 H       
  37 H37            9.0330     3.2670    -3.9356 H       
  38 H38            7.7092     2.2396    -4.5359 H       
  39 H39            9.7581     3.5904     1.4726 H       
  40 H40           10.5125     5.3844     2.9796 H       
  41 H41            7.1017     7.7198     1.8947 H       
  42 H42            6.3596     5.9255     0.3819 H       
  43 H43            8.3798     9.2835     2.4508 H       
  44 H44            7.4545     8.5519     3.7839 H       
  45 H45            8.8944     9.5374     4.1357 H       
@<TRIPOS>BOND
   1    1    2 1
   2    1    5 1
   3    2    3 1
   4    2   25 1
   5    2   26 1
   6    3    4 1
   7    4    5 ar
   8    4    6 ar
   9    5    9 ar
  10    6    7 ar
  11    6   27 1
  12    7    8 ar
  13    7   10 1
  14    8    9 ar
  15    8   28 1
  16    9   29 1
  17   10   11 2
  18   10   12 am
  19   12   13 1
  20   12   30 1
  21   13   14 1
  22   13   17 1
  23   13   31 1
  24   14   15 1
  25   14   32 1
  26   14   33 1
  27   15   16 1
  28   15   34 1
  29   15   35 1
  30   16   36 1
  31   16   37 1
  32   16   38 1
  33   17   18 ar
  34   17   22 ar
  35   18   19 ar
  36   18   39 1
  37   19   20 ar
  38   19   40 1
  39   20   21 ar
  40   20   23 1
  41   21   22 ar
  42   21   41 1
  43   22   42 1
  44   23   24 1
  45   24   43 1
  46   24   44 1
  47   24   45 1

#	End of record

