#	Name: ASD01885470
#	Creating user name:	WinNT
#	Creation time:	15. 06. 2019 19:49

#	Modifying user name:	WinNT
#	Modification time:	15. 06. 2019 19:49

#	Program:	/corina/corina34_cracker 3.40 0067  02.08.2006

@<TRIPOS>MOLECULE
ASD01885470
  52   54    0    0    0
SMALL
NO_CHARGES


@<TRIPOS>ATOM
   1 C1             0.1974     1.2193     0.1466 C.ar    
   2 C2             0.3123    -0.1706     0.1691 C.ar    
   3 N3            -0.7478    -1.0157     0.2363 N.2     
   4 C4            -1.8535    -0.9010    -0.4041 C.2     
   5 C5            -2.1213     0.2641    -1.3205 C.3     
   6 C6            -2.1113     1.5246    -0.4932 C.2     
   7 N7            -1.0172     1.8920     0.1727 N.am    
   8 C8             1.3510     2.0006     0.0889 C.ar    
   9 C9             2.6030     1.4110     0.0489 C.ar    
  10 C10            2.7184     0.0245     0.0657 C.ar    
  11 C11            1.5900    -0.7568     0.1249 C.ar    
  12 C12           -2.8882    -1.9361    -0.2393 C.ar    
  13 O13           -3.1089     2.2120    -0.4350 O.2     
  14 C14           -2.6206    -3.0808     0.5186 C.ar    
  15 C15           -3.5899    -4.0513     0.6741 C.ar    
  16 C16           -4.8288    -3.9004     0.0833 C.ar    
  17 C17           -5.1107    -2.7622    -0.6773 C.ar    
  18 C18           -4.1404    -1.7749    -0.8342 C.ar    
  19 C19           -6.3962    -2.6084    -1.2893 C.1     
  20 N20           -7.4160    -2.4865    -1.7747 N.1     
  21 N21            3.7504     2.2081    -0.0088 N.am    
  22 C22            4.8766     1.8146     0.6184 C.2     
  23 O23            4.8678     0.8183     1.3154 O.2     
  24 N24            6.0124     2.5253     0.4730 N.am    
  25 C25            7.2365     2.0976     1.1547 C.3     
  26 H26           -1.3444     0.3184    -2.0831 H       
  27 H27           -3.0953     0.1429    -1.7946 H       
  28 H28           -1.0737     2.6902     0.7210 H       
  29 H29            1.2668     3.0772     0.0749 H       
  30 H30            3.6942    -0.4370     0.0319 H       
  31 H31            1.6851    -1.8326     0.1376 H       
  32 H32           -1.6535    -3.2058     0.9830 H       
  33 H33           -3.3781    -4.9332     1.2603 H       
  34 H34           -5.5819    -4.6641     0.2091 H       
  35 H35           -4.3531    -0.8933    -1.4206 H       
  36 H36            3.7359     3.0443    -0.5002 H       
  37 H37            6.0194     3.3201    -0.0831 H       
  38 H38            7.0682     2.0877     2.2316 H       
  39 H39            7.5078     1.0963     0.8202 H       
  40 H40            8.0444     2.7905     0.9197 H       
  41 C41           13.9870    11.4570     7.2736 C.ar    
  42 C42           14.0057    10.0748     7.2660 C.ar    
  43 C43           15.2121     9.4000     7.2508 C.ar    
  44 C44           16.3997    10.1074     7.2428 C.ar    
  45 C45           16.3809    11.4896     7.2494 C.ar    
  46 C46           15.1746    12.1644     7.2661 C.ar    
  47 H47           13.0444    11.9842     7.2809 H       
  48 H48           13.0779     9.5221     7.2723 H       
  49 H49           15.2267     8.3201     7.2456 H       
  50 H50           17.3422     9.5801     7.2316 H       
  51 H51           17.3088    12.0422     7.2439 H       
  52 H52           15.1599    13.2443     7.2709 H       
@<TRIPOS>BOND
   1    1    2 ar
   2    1    8 ar
   3    1    7 1
   4    2    3 1
   5    2   11 ar
   6    3    4 2
   7    4    5 1
   8    4   12 1
   9    5    6 1
  10    5   26 1
  11    5   27 1
  12    6    7 am
  13    6   13 2
  14    7   28 1
  15    8    9 ar
  16    8   29 1
  17    9   10 ar
  18    9   21 1
  19   10   11 ar
  20   10   30 1
  21   11   31 1
  22   12   14 ar
  23   12   18 ar
  24   14   15 ar
  25   14   32 1
  26   15   16 ar
  27   15   33 1
  28   16   17 ar
  29   16   34 1
  30   17   18 ar
  31   17   19 1
  32   18   35 1
  33   19   20 3
  34   21   22 am
  35   21   36 1
  36   22   23 2
  37   22   24 am
  38   24   25 1
  39   24   37 1
  40   25   38 1
  41   25   39 1
  42   25   40 1
  43   41   42 ar
  44   41   46 ar
  45   41   47 1
  46   42   43 ar
  47   42   48 1
  48   43   44 ar
  49   43   49 1
  50   44   45 ar
  51   44   50 1
  52   45   46 ar
  53   45   51 1
  54   46   52 1

#	End of record

