#	Name: ASD03082436
#	Creating user name:	WinNT
#	Creation time:	15. 06. 2019 20:27

#	Modifying user name:	WinNT
#	Modification time:	15. 06. 2019 20:27

#	Program:	/corina/corina34_cracker 3.40 0067  02.08.2006

@<TRIPOS>MOLECULE
ASD03082436
  50   52    0    0    0
SMALL
NO_CHARGES


@<TRIPOS>ATOM
   1 C1             1.5195     3.6627    -0.7127 C.ar    
   2 C2             0.5819     4.3530    -1.4719 C.ar    
   3 C3             0.6218     5.7321    -1.5327 C.ar    
   4 C4             1.5933     6.4294    -0.8393 C.ar    
   5 C5             2.5320     5.7456    -0.0796 C.ar    
   6 N6             1.4797     2.2676    -0.6514 N.pl3   
   7 C7             2.6573     1.5430    -0.4393 C.2     
   8 C8             2.7477     0.1522    -0.2575 C.2     
   9 N9             3.8691     2.0436    -0.3814 N.2     
  10 N10            4.7669     0.9922    -0.1560 N.pl3   
  11 C11            4.0513    -0.1606    -0.0838 C.2     
  12 C12            6.1545     1.1080    -0.0309 C.ar    
  13 C13            7.0066     0.1968    -0.6515 C.ar    
  14 C14            6.7215     2.1414     0.7131 C.ar    
  15 C15            8.0952     2.2208     0.8121 C.ar    
  16 N16            8.8689     1.3347     0.2139 N.ar    
  17 C17            8.3706     0.3458    -0.5035 C.ar    
  18 C18            8.7203     3.3337     1.6132 C.3     
  19 H19            9.0384    -0.3587    -0.9768 H       
  20 C20            2.4989     4.3612    -0.0200 C.ar    
  21 O21            3.4864     6.4327     0.6015 O.3     
  22 C22            4.6106    -1.5405     0.1486 C.3     
  23 C23            4.7372    -2.2716    -1.1895 C.3     
  24 C24            5.4325    -3.6169    -0.9718 C.3     
  25 O25            3.4357    -2.4912    -1.7372 O.3     
  26 C26            5.6711    -4.2924    -2.3238 C.3     
  27 C27            3.4639     7.8572     0.4902 C.3     
  28 F28            2.2406     8.3428     0.9645 F       
  29 F29            4.5068     8.4006     1.2481 F       
  30 F30            3.6224     8.2228    -0.8508 F       
  31 H31           -0.1779     3.8105    -2.0149 H       
  32 H32           -0.1072     6.2669    -2.1234 H       
  33 H33            1.6220     7.5078    -0.8891 H       
  34 H34            0.6355     1.8014    -0.7560 H       
  35 H35            1.9216    -0.5435    -0.2561 H       
  36 H36            6.6052    -0.6151    -1.2398 H       
  37 H37            6.0941     2.8700     1.2048 H       
  38 H38            8.8445     3.0117     2.6471 H       
  39 H39            9.6937     3.5829     1.1909 H       
  40 H40            8.0747     4.2114     1.5810 H       
  41 H41            3.2286     3.8274     0.5707 H       
  42 H42            5.5933    -1.4607     0.6134 H       
  43 H43            3.9423    -2.0976     0.8052 H       
  44 H44            5.3246    -1.6665    -1.8800 H       
  45 H45            6.3880    -3.4555    -0.4727 H       
  46 H46            4.8025    -4.2556    -0.3527 H       
  47 H47            2.8570    -3.0238    -1.1747 H       
  48 H48            6.3011    -3.6537    -2.9429 H       
  49 H49            6.1665    -5.2508    -2.1687 H       
  50 H50            4.7156    -4.4538    -2.8229 H       
@<TRIPOS>BOND
   1    1    2 ar
   2    1    6 1
   3    1   20 ar
   4    2    3 ar
   5    2   31 1
   6    3    4 ar
   7    3   32 1
   8    4    5 ar
   9    4   33 1
  10    5   20 ar
  11    5   21 1
  12    6    7 1
  13    6   34 1
  14    7    8 1
  15    7    9 2
  16    8   11 2
  17    8   35 1
  18    9   10 1
  19   10   11 1
  20   10   12 1
  21   11   22 1
  22   12   13 ar
  23   12   14 ar
  24   13   17 ar
  25   13   36 1
  26   14   15 ar
  27   14   37 1
  28   15   16 ar
  29   15   18 1
  30   16   17 ar
  31   17   19 1
  32   18   38 1
  33   18   39 1
  34   18   40 1
  35   20   41 1
  36   21   27 1
  37   22   23 1
  38   22   42 1
  39   22   43 1
  40   23   24 1
  41   23   25 1
  42   23   44 1
  43   24   26 1
  44   24   45 1
  45   24   46 1
  46   25   47 1
  47   26   48 1
  48   26   49 1
  49   26   50 1
  50   27   28 1
  51   27   29 1
  52   27   30 1

#	End of record

