#	Name: ASD01882330
#	Creating user name:	WinNT
#	Creation time:	15. 06. 2019 19:44

#	Modifying user name:	WinNT
#	Modification time:	15. 06. 2019 19:44

#	Program:	/corina/corina34_cracker 3.40 0067  02.08.2006

@<TRIPOS>MOLECULE
ASD01882330
  53   57    0    0    0
SMALL
NO_CHARGES


@<TRIPOS>ATOM
   1 C1             1.2693     1.5426     1.0254 C.2     
   2 C2             1.2202     0.0809     1.0876 C.2     
   3 C3             1.5910    -0.6401    -0.0542 C.2     
   4 C4             1.9929     0.0617    -1.2069 C.2     
   5 C5             2.0257     1.4075    -1.2258 C.2     
   6 N6             1.6731     2.1500    -0.1382 N.pl3   
   7 N7             1.2019     3.6467     1.3369 N.2     
   8 N8             0.9923     2.5018     1.8859 N.2     
   9 C9             1.6157     3.4914     0.1076 C.2     
  10 C10            0.8055    -0.5922     2.2816 C.1     
  11 N11            0.4765    -1.1261     3.2288 N.1     
  12 N12            1.5633    -2.0221    -0.0496 N.pl3   
  13 C13            2.8002    -2.7962    -0.2218 C.3     
  14 C14            2.6047    -3.7884    -1.3725 C.3     
  15 C15            1.3627    -4.6404    -1.1007 C.3     
  16 C16            0.1291    -3.7377    -1.0264 C.3     
  17 C17            0.2973    -2.7449     0.1338 C.3     
  18 C18            1.1838    -5.6559    -2.2310 C.3     
  19 F19            2.3107    -6.4822    -2.2982 F       
  20 F20            0.0485    -6.4348    -1.9828 F       
  21 F21            1.0287    -4.9793    -3.4456 F       
  22 C22            1.5306    -5.3698     0.2073 C.ar    
  23 C23            1.7106    -4.6570     1.3779 C.ar    
  24 C24            1.8647    -5.3261     2.5777 C.ar    
  25 C25            1.8383    -6.7079     2.6069 C.ar    
  26 C26            1.6573    -7.4206     1.4364 C.ar    
  27 C27            1.4989    -6.7514     0.2372 C.ar    
  28 C28            1.9636     4.5913    -0.8620 C.3     
  29 C29            0.7148     4.9895    -1.6512 C.3     
  30 C30            0.8333     6.1765    -2.6093 C.3     
  31 C31            0.7295     4.7540    -3.1628 C.3     
  32 H32            2.2800    -0.4888    -2.0906 H       
  33 H33            2.3399     1.9126    -2.1272 H       
  34 H34            3.6236    -2.1218    -0.4568 H       
  35 H35            3.0215    -3.3405     0.6963 H       
  36 H36            2.4735    -3.2415    -2.3062 H       
  37 H37            3.4794    -4.4343    -1.4485 H       
  38 H38            0.0212    -3.1912    -1.9633 H       
  39 H39           -0.7582    -4.3474    -0.8561 H       
  40 H40            0.3187    -3.2850     1.0803 H       
  41 H41           -0.5311    -2.0366     0.1335 H       
  42 H42            1.7313    -3.5775     1.3551 H       
  43 H43            2.0061    -4.7693     3.4923 H       
  44 H44            1.9593    -7.2306     3.5442 H       
  45 H45            1.6370    -8.5002     1.4591 H       
  46 H46            1.3538    -7.3081    -0.6768 H       
  47 H47            2.3370     5.4554    -0.3124 H       
  48 H48            2.7317     4.2392    -1.5506 H       
  49 H49           -0.2331     4.8562    -1.1298 H       
  50 H50           -0.0369     6.8238    -2.7186 H       
  51 H51            1.8009     6.6737    -2.6774 H       
  52 H52            1.6288     4.3153    -3.5951 H       
  53 H53           -0.2089     4.4654    -3.6363 H       
@<TRIPOS>BOND
   1    1    2 1
   2    1    6 1
   3    1    8 2
   4    2    3 2
   5    2   10 1
   6    3    4 1
   7    3   12 1
   8    4    5 2
   9    4   32 1
  10    5    6 1
  11    5   33 1
  12    6    9 1
  13    7    8 1
  14    7    9 2
  15    9   28 1
  16   10   11 3
  17   12   13 1
  18   12   17 1
  19   13   14 1
  20   13   34 1
  21   13   35 1
  22   14   15 1
  23   14   36 1
  24   14   37 1
  25   15   16 1
  26   15   18 1
  27   15   22 1
  28   16   17 1
  29   16   38 1
  30   16   39 1
  31   17   40 1
  32   17   41 1
  33   18   19 1
  34   18   20 1
  35   18   21 1
  36   22   23 ar
  37   22   27 ar
  38   23   24 ar
  39   23   42 1
  40   24   25 ar
  41   24   43 1
  42   25   26 ar
  43   25   44 1
  44   26   27 ar
  45   26   45 1
  46   27   46 1
  47   28   29 1
  48   28   47 1
  49   28   48 1
  50   29   30 1
  51   29   31 1
  52   29   49 1
  53   30   31 1
  54   30   50 1
  55   30   51 1
  56   31   52 1
  57   31   53 1

#	End of record

