#	Name: ASD07300252
#	Creating user name:	WinNT
#	Creation time:	15. 06. 2019 21:09

#	Modifying user name:	WinNT
#	Modification time:	15. 06. 2019 21:09

#	Program:	/corina/corina34_cracker 3.40 0067  02.08.2006

@<TRIPOS>MOLECULE
ASD07300252
  66   68    0    0    0
SMALL
NO_CHARGES


@<TRIPOS>ATOM
   1 C1            -0.2168     2.5459    -2.6941 C.ar    
   2 C2             0.5971     1.4163    -2.5793 C.ar    
   3 C3             0.8738     0.6592    -3.7093 C.ar    
   4 C4             0.3252     1.0597    -4.9180 C.ar    
   5 C5            -0.4721     2.1891    -4.9592 C.ar    
   6 N6            -0.7187     2.8909    -3.8695 N.ar    
   7 C7             0.4083     2.3420    -0.5715 C.2     
   8 N8            -0.3124     3.0986    -1.4200 N.am    
   9 N9             0.9656     1.3152    -1.2412 N.am    
  10 O10            0.5334     2.5514     0.6207 O.2     
  11 C11           -1.0369     4.2503    -1.0783 C.ar    
  12 C12           -2.4247     4.2321    -1.1085 C.ar    
  13 C13           -3.1373     5.3658    -0.7716 C.ar    
  14 C14           -2.4667     6.5229    -0.4028 C.ar    
  15 C15           -1.0799     6.5418    -0.3729 C.ar    
  16 C16           -0.3664     5.4069    -0.7041 C.ar    
  17 O17           -3.1689     7.6389    -0.0712 O.3     
  18 Si18          -3.6242     7.6955     1.4940 Si      
  19 C19           -4.3656     9.3638     1.8651 C.3     
  20 C20           -3.3347    10.4562     1.5740 C.3     
  21 C21           -5.5998     9.5802     0.9871 C.3     
  22 C22           -4.8888     6.3672     1.8212 C.3     
  23 C23           -5.4925     6.5694     3.2125 C.3     
  24 C24           -5.9961     6.4468     0.7684 C.3     
  25 C25           -2.1382     7.4201     2.5833 C.3     
  26 C26           -2.4396     7.9275     3.9949 C.3     
  27 C27           -1.8150     5.9256     2.6368 C.3     
  28 C28            1.7479    -0.5655    -3.6247 C.3     
  29 C29            1.8200     0.2754    -0.6623 C.3     
  30 C30            3.2812     0.7255    -0.7199 C.3     
  31 O31           -1.5408     4.0403    -3.9593 O.3     
  32 H32            0.5188     0.4956    -5.8184 H       
  33 H33           -0.8998     2.5024    -5.9001 H       
  34 H34           -2.9468     3.3314    -1.3959 H       
  35 H35           -4.2170     5.3519    -0.7954 H       
  36 H36           -0.5583     7.4430    -0.0864 H       
  37 H37            0.7132     5.4203    -0.6761 H       
  38 H38           -4.6546     9.4075     2.9152 H       
  39 H39           -3.0457    10.4126     0.5239 H       
  40 H40           -3.7685    11.4324     1.7912 H       
  41 H41           -2.4555    10.3021     2.1995 H       
  42 H42           -5.3478     9.3693    -0.0522 H       
  43 H43           -6.3975     8.9115     1.3105 H       
  44 H44           -5.9332    10.6140     1.0775 H       
  45 H45           -4.4099     5.3894     1.7716 H       
  46 H46           -6.2280     5.7887     3.4064 H       
  47 H47           -4.7027     6.5188     3.9621 H       
  48 H48           -5.9768     7.5447     3.2602 H       
  49 H49           -5.5517     6.4499    -0.2269 H       
  50 H50           -6.6558     5.5849     0.8690 H       
  51 H51           -6.5698     7.3623     0.9130 H       
  52 H52           -1.2843     7.9622     2.1770 H       
  53 H53           -3.2619     7.3520     4.4200 H       
  54 H54           -1.5539     7.8114     4.6196 H       
  55 H55           -2.7177     8.9805     3.9509 H       
  56 H56           -0.8869     5.7740     3.1879 H       
  57 H57           -2.6256     5.3962     3.1376 H       
  58 H58           -1.7022     5.5417     1.6228 H       
  59 H59            1.1298    -1.4396    -3.4195 H       
  60 H60            2.2711    -0.7045    -4.5708 H       
  61 H61            2.4750    -0.4383    -2.8227 H       
  62 H62            1.5329     0.1052     0.3753 H       
  63 H63            1.7019    -0.6486    -1.2283 H       
  64 H64            3.3993     1.6496    -0.1540 H       
  65 H65            3.9169    -0.0481    -0.2892 H       
  66 H66            3.5683     0.8957    -1.7576 H       
@<TRIPOS>BOND
   1    1    2 ar
   2    1    6 ar
   3    1    8 1
   4    2    3 ar
   5    2    9 1
   6    3    4 ar
   7    3   28 1
   8    4    5 ar
   9    4   32 1
  10    5    6 ar
  11    5   33 1
  12    6   31 1
  13    7    8 am
  14    7    9 am
  15    7   10 2
  16    8   11 1
  17    9   29 1
  18   11   12 ar
  19   11   16 ar
  20   12   13 ar
  21   12   34 1
  22   13   14 ar
  23   13   35 1
  24   14   15 ar
  25   14   17 1
  26   15   16 ar
  27   15   36 1
  28   16   37 1
  29   17   18 1
  30   18   19 1
  31   18   22 1
  32   18   25 1
  33   19   20 1
  34   19   21 1
  35   19   38 1
  36   20   39 1
  37   20   40 1
  38   20   41 1
  39   21   42 1
  40   21   43 1
  41   21   44 1
  42   22   23 1
  43   22   24 1
  44   22   45 1
  45   23   46 1
  46   23   47 1
  47   23   48 1
  48   24   49 1
  49   24   50 1
  50   24   51 1
  51   25   26 1
  52   25   27 1
  53   25   52 1
  54   26   53 1
  55   26   54 1
  56   26   55 1
  57   27   56 1
  58   27   57 1
  59   27   58 1
  60   28   59 1
  61   28   60 1
  62   28   61 1
  63   29   30 1
  64   29   62 1
  65   29   63 1
  66   30   64 1
  67   30   65 1
  68   30   66 1

#	End of record

