#	Name: ASD01912156
#	Creating user name:	WinNT
#	Creation time:	15. 06. 2019 19:59

#	Modifying user name:	WinNT
#	Modification time:	15. 06. 2019 19:59

#	Program:	/corina/corina34_cracker 3.40 0067  02.08.2006

@<TRIPOS>MOLECULE
ASD01912156
  41   44    0    0    0
SMALL
NO_CHARGES


@<TRIPOS>ATOM
   1 C1            -0.0183     1.5107     0.0189 C.3     
   2 C2            -0.0110     0.0037     0.0162 C.2     
   3 O3             0.5367    -0.7860    -0.9129 O.3     
   4 N4             0.3694    -1.9508    -0.6191 N.2     
   5 C5            -0.2899    -2.0401     0.5066 C.2     
   6 N6            -0.5352    -0.7785     0.9267 N.2     
   7 C7            -0.6893    -3.2919     1.1968 C.ar    
   8 C8            -0.3610    -4.5286     0.6465 C.ar    
   9 C9            -0.7353    -5.6907     1.2934 C.ar    
  10 C10           -1.4351    -5.6266     2.4859 C.ar    
  11 C11           -1.7631    -4.4005     3.0358 C.ar    
  12 C12           -1.3889    -3.2339     2.4006 C.ar    
  13 C13            1.4227     2.0710    -0.0076 C.3     
  14 Cl14          -0.3280    -7.2333     0.6092 Cl      
  15 C15            1.3276     3.2975    -0.8882 C.2     
  16 N16            0.1863     3.2697    -1.5978 N.am    
  17 C17           -0.5955     2.0631    -1.3032 C.3     
  18 O18            2.1598     4.1780    -0.9451 O.2     
  19 C19           -0.2062     4.2638    -2.5010 C.ar    
  20 C20            0.5423     5.4271    -2.6239 C.ar    
  21 C21            0.1525     6.4061    -3.5167 C.ar    
  22 C22           -0.9819     6.2292    -4.2874 C.ar    
  23 C23           -1.7293     5.0719    -4.1673 C.ar    
  24 C24           -1.3417     4.0866    -3.2806 C.ar    
  25 C25           -1.4049     7.3000    -5.2598 C.3     
  26 H26           -0.5703     1.8945     0.8768 H       
  27 H27            0.1847    -4.5791    -0.2841 H       
  28 H28           -1.7264    -6.5370     2.9885 H       
  29 H29           -2.3092    -4.3561     3.9665 H       
  30 H30           -1.6454    -2.2773     2.8314 H       
  31 H31            1.7434     2.3467     0.9970 H       
  32 H32            2.1075     1.3422    -0.4412 H       
  33 H33           -0.4754     1.3314    -2.1021 H       
  34 H34           -1.6482     2.3169    -1.1783 H       
  35 H35            1.4280     5.5662    -2.0218 H       
  36 H36            0.7341     7.3111    -3.6127 H       
  37 H37           -2.6148     4.9367    -4.7707 H       
  38 H38           -1.9259     3.1830    -3.1873 H       
  39 H39           -0.9393     7.1159    -6.2280 H       
  40 H40           -2.4893     7.2838    -5.3690 H       
  41 H41           -1.0919     8.2747    -4.8856 H       
@<TRIPOS>BOND
   1    1    2 1
   2    1   13 1
   3    1   17 1
   4    1   26 1
   5    2    3 1
   6    2    6 2
   7    3    4 1
   8    4    5 2
   9    5    6 1
  10    5    7 1
  11    7    8 ar
  12    7   12 ar
  13    8    9 ar
  14    8   27 1
  15    9   10 ar
  16    9   14 1
  17   10   11 ar
  18   10   28 1
  19   11   12 ar
  20   11   29 1
  21   12   30 1
  22   13   15 1
  23   13   31 1
  24   13   32 1
  25   15   16 am
  26   15   18 2
  27   16   17 1
  28   16   19 1
  29   17   33 1
  30   17   34 1
  31   19   20 ar
  32   19   24 ar
  33   20   21 ar
  34   20   35 1
  35   21   22 ar
  36   21   36 1
  37   22   23 ar
  38   22   25 1
  39   23   24 ar
  40   23   37 1
  41   24   38 1
  42   25   39 1
  43   25   40 1
  44   25   41 1

#	End of record

