#	Name: ASD03470004
#	Creating user name:	WinNT
#	Creation time:	15. 06. 2019 20:42

#	Modifying user name:	WinNT
#	Modification time:	15. 06. 2019 20:42

#	Program:	/corina/corina34_cracker 3.40 0067  02.08.2006

@<TRIPOS>MOLECULE
ASD03470004
 184  175    0    0    0
SMALL
NO_CHARGES


@<TRIPOS>ATOM
   1 N1             0.2087     1.9927    -3.6908 N.am    
   2 C2             0.1472     1.2066    -4.9256 C.3     
   3 C3            -1.3142     0.9165    -5.2732 C.3     
   4 C4            11.2311     8.6918    -0.0924 C.2     
   5 O5            10.7774     7.5681    -0.1402 O.2     
   6 N6            10.6029     9.6421     0.6278 N.am    
   7 C7             9.3720     9.3177     1.3530 C.3     
   8 C8             8.3237     8.8474     0.3779 C.2     
   9 O9             8.6521     8.4428    -0.7172 O.2     
  10 C10            9.6560     8.2104     2.3699 C.3     
  11 C11           10.6120     8.7225     3.4163 C.2     
  12 O12           11.0239     9.8567     3.3550 O.2     
  13 O13           11.0058     7.9186     4.4165 O.3     
  14 N14            7.0211     8.8765     0.7228 N.am    
  15 C15            5.9947     8.5240    -0.2613 C.3     
  16 C16            5.8431     7.0256    -0.3142 C.2     
  17 O17            6.5252     6.3215     0.3998 O.2     
  18 C18            4.6619     9.1575     0.1426 C.3     
  19 C19            4.7692    10.6577     0.0467 C.2     
  20 N20            3.7517    11.4344     0.4682 N.am    
  21 O21            5.7713    11.1660    -0.4097 O.2     
  22 N22            4.9494     6.4680    -1.1550 N.am    
  23 C23            4.7237     5.0207    -1.1295 C.3     
  24 C24            3.3173     4.7236    -1.5820 C.2     
  25 O25            2.5926     5.6268    -1.9422 O.2     
  26 C26            5.7174     4.3330    -2.0679 C.3     
  27 C27            5.6291     4.9669    -3.4576 C.3     
  28 C28            6.7585     4.4268    -4.3372 C.3     
  29 C29            4.2798     4.6215    -4.0908 C.3     
  30 N30            2.8649     3.4540    -1.5864 N.am    
  31 C31            1.4655     3.1762    -1.9193 C.3     
  32 C32            1.4023     2.3676    -3.1894 C.2     
  33 O33            2.4254     2.0542    -3.7604 O.2     
  34 C34            0.8171     2.3876    -0.7798 C.3     
  35 C35            0.8098     3.2272     0.4716 C.2     
  36 O36            0.3996     2.6958     1.6340 O.3     
  37 O37            1.1731     4.3787     0.4286 O.2     
  38 H38           -0.6097     2.2468    -3.2364 H       
  39 H39            0.6092     1.7685    -5.7374 H       
  40 H40            0.6807     0.2666    -4.7848 H       
  41 H41           -1.8477     1.8566    -5.4140 H       
  42 H42           -1.3600     0.3317    -6.1919 H       
  43 H43           -1.7762     0.3547    -4.4614 H       
  44 H44           12.1385     8.9310    -0.6270 H       
  45 H45           10.9658    10.5409     0.6661 H       
  46 H46            9.0122    10.2053     1.8733 H       
  47 H47            8.7238     7.9072     2.8467 H       
  48 H48           10.0990     7.3544     1.8609 H       
  49 H49           11.6198     8.2917     5.0638 H       
  50 H50            6.7632     9.1308     1.6227 H       
  51 H51            6.2902     8.8942    -1.2430 H       
  52 H52            3.8754     8.8061    -0.5252 H       
  53 H53            4.4213     8.8753     1.1676 H       
  54 H54            2.9502    11.0278     0.8333 H       
  55 H55            3.8207    12.4000     0.4065 H       
  56 H56            4.4557     7.0249    -1.7771 H       
  57 H57            4.8652     4.6488    -0.1147 H       
  58 H58            6.7281     4.4524    -1.6776 H       
  59 H59            5.4776     3.2719    -2.1366 H       
  60 H60            5.7228     6.0493    -3.3698 H       
  61 H61            6.6647     3.3444    -4.4250 H       
  62 H62            6.6956     4.8784    -5.3272 H       
  63 H63            7.7197     4.6728    -3.8860 H       
  64 H64            3.4917     5.1941    -3.6018 H       
  65 H65            4.3029     4.8681    -5.1523 H       
  66 H66            4.0836     3.5562    -3.9695 H       
  67 H67            3.4659     2.7242    -1.3692 H       
  68 H68            0.9321     4.1163    -2.0601 H       
  69 H69           -0.2070     2.1318    -1.0517 H       
  70 H70            1.3846     1.4742    -0.6012 H       
  71 H71            0.4126     3.2733     2.4095 H       
  72 C72           18.0811    18.6126    10.0817 C.2     
  73 O73           18.0975    17.4000    10.0751 O.2     
  74 N74           19.2390    19.3023    10.0744 N.am    
  75 H75           17.1385    19.1399    10.0891 H       
  76 H76           20.0855    18.8288    10.0638 H       
  77 H77           19.2258    20.2722    10.0797 H       
  78 N78           26.0850    27.1187    16.0267 N.3     
  79 C79           26.1050    25.6499    16.0186 C.3     
  80 H80           27.0220    27.4931    16.0197 H       
  81 H81           25.5466    27.4773    15.2523 H       
  82 H82           25.0855    25.2722    16.0972 H       
  83 H83           26.5522    25.2977    15.0891 H       
  84 H84           26.6919    25.2898    16.8635 H       
  85 C85           32.9645    38.2540    23.9738 C.2     
  86 C86           35.1883    34.3017    23.9313 C.2     
  87 C87           32.9824    36.9353    23.9666 C.2     
  88 O88           34.0498    35.0193    23.9461 O.3     
  89 O89           34.1645    36.2741    23.9517 O.3     
  90 C90           34.2592    39.0252    23.9656 C.3     
  91 C91           34.2627    40.0034    22.7891 C.3     
  92 C92           33.1681    41.0524    22.9947 C.3     
  93 C93           35.6242    40.6965    22.7062 C.3     
  94 N94           35.1382    33.0102    23.9249 N.2     
  95 H95           32.0220    38.7813    23.9811 H       
  96 H96           36.1438    34.8051    23.9249 H       
  97 H97           32.0545    36.3826    23.9724 H       
  98 H98           34.3580    39.5793    24.8991 H       
  99 H99           35.0943    38.3321    23.8643 H       
 100 H100          34.0752    39.4591    21.8635 H       
 101 H101          33.1706    41.7492    22.1566 H       
 102 H102          32.1982    40.5586    23.0538 H       
 103 H103          33.3557    41.5966    23.9203 H       
 104 H104          36.4041    39.9492    22.5597 H       
 105 H105          35.6267    41.3934    21.8681 H       
 106 H106          35.8118    41.2408    23.6318 H       
 107 H107          35.9587    32.4931    23.9143 H       
 108 C108          42.4059    49.8758    32.0493 C.3     
 109 C109          42.4267    48.3459    32.0409 C.3     
 110 C110          43.1428    47.8525    30.7821 C.3     
 111 C111          43.1666    47.8391    33.2804 C.3     
 112 H112          43.4285    50.2531    32.0416 H       
 113 H113          41.8787    50.2368    31.1663 H       
 114 H114          41.8957    50.2273    32.9461 H       
 115 H115          41.4041    47.9687    32.0487 H       
 116 H116          44.1654    48.2298    30.7744 H       
 117 H117          43.1576    46.7626    30.7761 H       
 118 H118          42.6156    48.2136    29.8991 H       
 119 H119          42.6565    48.1906    34.1772 H       
 120 H120          43.1814    46.7492    33.2744 H       
 121 H121          44.1892    48.2164    33.2727 H       
 122 C122          52.9355    61.2151    40.0824 C.3     
 123 C123          52.9563    59.6853    40.0740 C.3     
 124 C124          51.5209    59.1557    40.0849 C.3     
 125 C125          51.5417    57.6259    40.0765 C.3     
 126 C126          50.1063    57.0963    40.0873 C.3     
 127 N127          50.1262    55.6274    40.0793 N.3     
 128 H128          53.9581    61.5924    40.0747 H       
 129 H129          52.4084    61.5762    39.1994 H       
 130 H130          52.4254    61.5666    40.9792 H       
 131 H131          53.4665    59.3338    39.1772 H       
 132 H132          53.4835    59.3242    40.9571 H       
 133 H133          51.0107    59.5072    40.9817 H       
 134 H134          50.9937    59.5168    39.2018 H       
 135 H135          52.0518    57.2743    39.1797 H       
 136 H136          52.0688    57.2648    40.9595 H       
 137 H137          49.5961    57.4478    40.9841 H       
 138 H138          49.5791    57.4574    39.2043 H       
 139 H139          49.1892    55.2531    40.0862 H       
 140 H140          50.6497    55.2772    39.2910 H       
 141 C141          59.7250    67.2483    51.2628 C.2     
 142 O142          58.9581    67.3604    52.1961 O.2     
 143 N143          60.8838    67.9385    51.2555 N.2     
 144 C144          61.7046    67.8186    50.2567 C.2     
 145 C145          62.9993    68.5898    50.2485 C.3     
 146 C146          60.5800    70.2466    49.4335 C.3     
 147 C147          63.3032    69.4546    49.0153 C.3     
 148 C148          61.5603    70.7840    50.4762 C.3     
 149 C149          61.2035    70.4162    48.0434 C.3     
 150 C150          62.9150    70.1081    50.3324 C.3     
 151 C151          62.2985    69.3637    47.8689 C.3     
 152 C152          60.1292    70.2224    46.9714 C.3     
 153 H153          59.4819    66.5924    50.4400 H       
 154 H154          61.4594    67.1661    49.4317 H       
 155 H155          63.8402    68.1026    50.7420 H       
 156 H156          60.3879    69.1903    49.6221 H       
 157 H157          59.6462    70.8062    49.4865 H       
 158 H158          64.3472    69.5453    48.7157 H       
 159 H159          61.6782    71.8589    50.3387 H       
 160 H160          61.1660    70.5908    51.4739 H       
 161 H161          61.6335    71.4138    47.9544 H       
 162 H162          63.7237    70.5897    50.8821 H       
 163 H163          62.8135    69.5315    46.9230 H       
 164 H164          61.8478    68.3712    47.8613 H       
 165 H165          59.3418    70.9637    47.1079 H       
 166 H166          60.5750    70.3435    45.9841 H       
 167 H167          59.7053    69.2219    47.0585 H       
 168 N168          69.8856    77.8678    57.9704 N.3     
 169 H169          69.8993    76.8589    57.9649 H       
 170 H170          70.8226    78.2421    57.9635 H       
 171 H171          69.3472    78.2264    57.1961 H       
 172 C172          76.3498    84.3320    63.8535 C.3     
 173 H173          76.3646    83.2421    63.8475 H       
 174 H174          77.3724    84.7093    63.8458 H       
 175 H175          75.8226    84.6931    62.9704 H       
 176 H176          75.8396    84.6835    64.7503 H       
 177 C177          82.8996    90.7992    70.6334 C.3     
 178 H178          82.9143    89.7093    70.6274 H       
 179 H179          83.9222    91.1765    70.6256 H       
 180 H180          82.3724    91.1603    69.7503 H       
 181 H181          82.3894    91.1507    71.5301 H       
 182 O182          88.9222    97.1434    76.5364 O.3     
 183 H183          88.9353    96.1765    76.5310 H       
 184 H184          89.8001    97.5487    76.5301 H       
@<TRIPOS>BOND
   1    1    2 1
   2    1   32 am
   3    1   38 1
   4    2    3 1
   5    2   39 1
   6    2   40 1
   7    3   41 1
   8    3   42 1
   9    3   43 1
  10    4    6 am
  11    4    5 2
  12    4   44 1
  13    6    7 1
  14    6   45 1
  15    7   10 1
  16    7    8 1
  17    7   46 1
  18    8   14 am
  19    8    9 2
  20   10   11 1
  21   10   47 1
  22   10   48 1
  23   11   12 2
  24   11   13 1
  25   13   49 1
  26   14   15 1
  27   14   50 1
  28   15   18 1
  29   15   16 1
  30   15   51 1
  31   16   17 2
  32   16   22 am
  33   18   19 1
  34   18   52 1
  35   18   53 1
  36   19   20 am
  37   19   21 2
  38   20   54 1
  39   20   55 1
  40   22   23 1
  41   22   56 1
  42   23   24 1
  43   23   26 1
  44   23   57 1
  45   24   25 2
  46   24   30 am
  47   26   27 1
  48   26   58 1
  49   26   59 1
  50   27   29 1
  51   27   28 1
  52   27   60 1
  53   28   61 1
  54   28   62 1
  55   28   63 1
  56   29   64 1
  57   29   65 1
  58   29   66 1
  59   30   31 1
  60   30   67 1
  61   31   32 1
  62   31   34 1
  63   31   68 1
  64   32   33 2
  65   34   35 1
  66   34   69 1
  67   34   70 1
  68   35   36 1
  69   35   37 2
  70   36   71 1
  71   72   73 2
  72   72   74 am
  73   72   75 1
  74   74   76 1
  75   74   77 1
  76   78   79 1
  77   78   80 1
  78   78   81 1
  79   79   82 1
  80   79   83 1
  81   79   84 1
  82   85   87 2
  83   85   90 1
  84   85   95 1
  85   86   88 1
  86   86   94 2
  87   86   96 1
  88   87   89 1
  89   87   97 1
  90   88   89 1
  91   90   91 1
  92   90   98 1
  93   90   99 1
  94   91   92 1
  95   91   93 1
  96   91  100 1
  97   92  101 1
  98   92  102 1
  99   92  103 1
 100   93  104 1
 101   93  105 1
 102   93  106 1
 103   94  107 1
 104  108  109 1
 105  108  112 1
 106  108  113 1
 107  108  114 1
 108  109  111 1
 109  109  110 1
 110  109  115 1
 111  110  116 1
 112  110  117 1
 113  110  118 1
 114  111  119 1
 115  111  120 1
 116  111  121 1
 117  122  123 1
 118  122  128 1
 119  122  129 1
 120  122  130 1
 121  123  124 1
 122  123  131 1
 123  123  132 1
 124  124  125 1
 125  124  133 1
 126  124  134 1
 127  125  126 1
 128  125  135 1
 129  125  136 1
 130  126  127 1
 131  126  137 1
 132  126  138 1
 133  127  139 1
 134  127  140 1
 135  141  142 2
 136  141  143 1
 137  141  153 1
 138  143  144 2
 139  144  145 1
 140  144  154 1
 141  145  147 1
 142  145  150 1
 143  145  155 1
 144  146  149 1
 145  146  148 1
 146  146  156 1
 147  146  157 1
 148  147  151 1
 149  147  150 1
 150  147  158 1
 151  148  150 1
 152  148  159 1
 153  148  160 1
 154  149  152 1
 155  149  151 1
 156  149  161 1
 157  150  162 1
 158  151  163 1
 159  151  164 1
 160  152  165 1
 161  152  166 1
 162  152  167 1
 163  168  169 1
 164  168  170 1
 165  168  171 1
 166  172  173 1
 167  172  174 1
 168  172  175 1
 169  172  176 1
 170  177  178 1
 171  177  179 1
 172  177  180 1
 173  177  181 1
 174  182  183 1
 175  182  184 1

#	End of record

