#	Name: ASD01811653
#	Creating user name:	WinNT
#	Creation time:	15. 06. 2019 19:27

#	Modifying user name:	WinNT
#	Modification time:	15. 06. 2019 19:27

#	Program:	/corina/corina34_cracker 3.40 0067  02.08.2006

@<TRIPOS>MOLECULE
ASD01811653
  58   63    0    0    0
SMALL
NO_CHARGES


@<TRIPOS>ATOM
   1 C1            -0.0167     1.3788     0.0096 C.ar    
   2 C2             0.0021    -0.0041     0.0020 C.ar    
   3 C3             1.2020    -0.6841    -0.0123 C.ar    
   4 C4             2.4053     0.0177    -0.0199 C.ar    
   5 C5             2.3742     1.4091    -0.0130 C.ar    
   6 C6             1.1739     2.0837     0.0020 C.ar    
   7 N7             3.7260    -0.4360    -0.0340 N.am    
   8 C8             4.6117     0.5788    -0.0379 C.2     
   9 C9             3.8098     1.8519    -0.0253 C.3     
  10 C10            4.1225     2.7251    -1.2431 C.3     
  11 N11            4.5803     4.0343    -0.7220 N.3     
  12 C12            5.1222     3.7643     0.6353 C.3     
  13 C13            4.1427     2.7062     1.2080 C.3     
  14 C14            4.1043    -1.8513    -0.0430 C.3     
  15 C15            4.2213    -2.3309    -1.4668 C.ar    
  16 C16            5.4352    -2.2404    -2.1281 C.ar    
  17 C17            5.5478    -2.6789    -3.4340 C.ar    
  18 C18            4.4366    -3.2132    -4.0860 C.ar    
  19 C19            3.2166    -3.3021    -3.4157 C.ar    
  20 C20            3.1160    -2.8660    -2.1080 C.ar    
  21 F21            1.9349    -2.9515    -1.4576 F       
  22 F22            6.5107    -1.7223    -1.4957 F       
  23 C23            4.5514    -3.6840    -5.4852 C.ar    
  24 C24            4.0657    -5.0102    -5.8699 C.ar    
  25 C25            4.2057    -5.4245    -7.2745 C.ar    
  26 C26            4.8008    -4.5280    -8.1872 C.ar    
  27 C27            5.2337    -3.3113    -7.7743 C.ar    
  28 C28            5.1137    -2.8793    -6.4560 C.ar    
  29 C29            3.4625    -6.0576    -5.2088 C.2     
  30 N30            3.2420    -7.0354    -6.0999 N.pl3   
  31 N31            3.6994    -6.6414    -7.3627 N.2     
  32 C32            2.6159    -8.3246    -5.7964 C.3     
  33 O33            5.8208     0.4847    -0.0490 O.2     
  34 C34            5.6093     4.6171    -1.5934 C.3     
  35 H35           -0.9585     1.9073     0.0170 H       
  36 H36           -0.9273    -0.5542     0.0077 H       
  37 H37            1.2087    -1.7641    -0.0174 H       
  38 H38            1.1617     3.1636     0.0072 H       
  39 H39            4.9102     2.2650    -1.8397 H       
  40 H40            3.2251     2.8573    -1.8475 H       
  41 H41            6.1320     3.3587     0.5721 H       
  42 H42            5.1078     4.6697     1.2420 H       
  43 H43            3.2450     3.1834     1.6013 H       
  44 H44            4.6294     2.1042     1.9753 H       
  45 H45            5.0624    -1.9745     0.4618 H       
  46 H46            3.3429    -2.4341     0.4753 H       
  47 H47            6.4945    -2.6076    -3.9489 H       
  48 H48            2.3532    -3.7147    -3.9163 H       
  49 H49            4.9127    -4.8134    -9.2228 H       
  50 H50            5.6854    -2.6489    -8.4978 H       
  51 H51            5.4767    -1.8988    -6.1854 H       
  52 H52            3.2115    -6.0862    -4.1588 H       
  53 H53            1.5372    -8.2452    -5.9307 H       
  54 H54            3.0105    -9.0872    -6.4679 H       
  55 H55            2.8343    -8.6008    -4.7648 H       
  56 H56            5.1992     4.7628    -2.5927 H       
  57 H57            5.9276     5.5775    -1.1877 H       
  58 H58            6.4647     3.9436    -1.6463 H       
@<TRIPOS>BOND
   1    1    2 ar
   2    1    6 ar
   3    1   35 1
   4    2    3 ar
   5    2   36 1
   6    3    4 ar
   7    3   37 1
   8    4    5 ar
   9    4    7 1
  10    5    6 ar
  11    5    9 1
  12    6   38 1
  13    7    8 am
  14    7   14 1
  15    8    9 1
  16    8   33 2
  17    9   10 1
  18    9   13 1
  19   10   11 1
  20   10   39 1
  21   10   40 1
  22   11   12 1
  23   11   34 1
  24   12   13 1
  25   12   41 1
  26   12   42 1
  27   13   43 1
  28   13   44 1
  29   14   15 1
  30   14   45 1
  31   14   46 1
  32   15   16 ar
  33   15   20 ar
  34   16   17 ar
  35   16   22 1
  36   17   18 ar
  37   17   47 1
  38   18   19 ar
  39   18   23 1
  40   19   20 ar
  41   19   48 1
  42   20   21 1
  43   23   24 ar
  44   23   28 ar
  45   24   25 ar
  46   24   29 2
  47   25   26 ar
  48   25   31 2
  49   26   27 ar
  50   26   49 1
  51   27   28 ar
  52   27   50 1
  53   28   51 1
  54   29   30 1
  55   29   52 1
  56   30   31 1
  57   30   32 1
  58   32   53 1
  59   32   54 1
  60   32   55 1
  61   34   56 1
  62   34   57 1
  63   34   58 1

#	End of record

