#	Name: ASD03081118
#	Creating user name:	WinNT
#	Creation time:	15. 06. 2019 20:27

#	Modifying user name:	WinNT
#	Modification time:	15. 06. 2019 20:27

#	Program:	/corina/corina34_cracker 3.40 0067  02.08.2006

@<TRIPOS>MOLECULE
ASD03081118
  24   26    0    0    0
SMALL
NO_CHARGES


@<TRIPOS>ATOM
   1 O1            -0.0144     1.2086     0.0087 O.3     
   2 N2             0.0021    -0.0041     0.0020 N.2     
   3 C3             1.2351    -0.4415    -0.0121 C.2     
   4 N4             2.0451     0.6377    -0.0140 N.2     
   5 C5             1.2407     1.6828    -0.0008 C.2     
   6 C6             2.4371    -4.4261    -0.0446 C.ar    
   7 N7             1.1486    -4.1477    -0.0309 N.ar    
   8 C8             0.7238    -2.8958    -0.0200 C.ar    
   9 C9             1.6638    -1.8626    -0.0234 C.ar    
  10 C10            3.0183    -2.2035    -0.0382 C.ar    
  11 N11            3.3567    -3.4814    -0.0483 N.ar    
  12 C12            1.1100     5.4415     0.0199 C.ar    
  13 C13            0.6876     4.1252     0.0173 C.ar    
  14 C14            1.6451     3.1064     0.0026 C.ar    
  15 C15            2.9965     3.4700    -0.0083 C.ar    
  16 C16            3.3297     4.8090    -0.0043 C.ar    
  17 N17            2.3953     5.7400     0.0092 N.ar    
  18 Cl18          -0.0659     6.7185     0.0307 Cl      
  19 H19            2.7491    -5.4600    -0.0486 H       
  20 H20           -0.3334    -2.6755    -0.0091 H       
  21 H21            3.7773    -1.4351    -0.0416 H       
  22 H22           -0.3658     3.8874     0.0264 H       
  23 H23            3.7673     2.7137    -0.0194 H       
  24 H24            4.3700     5.0989    -0.0127 H       
@<TRIPOS>BOND
   1    1    2 1
   2    1    5 1
   3    2    3 2
   4    3    4 1
   5    3    9 1
   6    4    5 2
   7    5   14 1
   8    6    7 ar
   9    6   11 ar
  10    6   19 1
  11    7    8 ar
  12    8    9 ar
  13    8   20 1
  14    9   10 ar
  15   10   11 ar
  16   10   21 1
  17   12   13 ar
  18   12   17 ar
  19   12   18 1
  20   13   14 ar
  21   13   22 1
  22   14   15 ar
  23   15   16 ar
  24   15   23 1
  25   16   17 ar
  26   16   24 1

#	End of record

