#	Name: ASD03090695
#	Creating user name:	WinNT
#	Creation time:	15. 06. 2019 20:29

#	Modifying user name:	WinNT
#	Modification time:	15. 06. 2019 20:29

#	Program:	/corina/corina34_cracker 3.40 0067  02.08.2006

@<TRIPOS>MOLECULE
ASD03090695
  31   32    0    0    0
SMALL
NO_CHARGES


@<TRIPOS>ATOM
   1 N1            -0.0162     1.3436     0.0094 N.am    
   2 C2            -0.1449     0.0022     0.0363 C.2     
   3 O3             0.8408    -0.7048    -0.0466 O.2     
   4 N4            -1.3661    -0.5554     0.1549 N.am    
   5 S5            -0.2031    -3.0491     0.0763 S.3     
   6 C6            -1.4988    -1.9387     0.1826 C.2     
   7 N7            -2.6229    -2.5747     0.2927 N.2     
   8 C8            -2.5648    -3.8936     0.3022 C.2     
   9 C9            -1.3332    -4.3953     0.1950 C.2     
  10 C10           -3.7902    -4.7620     0.4250 C.3     
  11 F11           -4.9352    -3.9584     0.4056 F       
  12 F12           -3.8336    -5.6615    -0.6456 F       
  13 F13           -3.7395    -5.4725     1.6292 F       
  14 C14            1.2568     1.9244     0.0078 C.ar    
  15 C15            1.4795     3.1098    -0.6816 C.ar    
  16 C16            2.7362     3.6831    -0.6833 C.ar    
  17 C17            3.7749     3.0794    -0.0001 C.ar    
  18 C18            3.5583     1.8953     0.6902 C.ar    
  19 C19            2.2970     1.3202     0.6993 C.ar    
  20 C20            0.3495     3.7704    -1.4285 C.3     
  21 O21            4.5805     1.3028     1.3616 O.3     
  22 H22           -0.8060     1.9062    -0.0128 H       
  23 H23           -2.1525     0.0087     0.2210 H       
  24 H24           -1.0743    -5.4438     0.1830 H       
  25 H25            2.9075     4.6047    -1.2197 H       
  26 H26            4.7566     3.5297    -0.0037 H       
  27 H27            2.1253     0.4011     1.2400 H       
  28 H28           -0.1666     4.4653    -0.7661 H       
  29 H29            0.7486     4.3134    -2.2852 H       
  30 H30           -0.3508     3.0101    -1.7744 H       
  31 H31            4.6676     1.5918     2.2803 H       
@<TRIPOS>BOND
   1    1    2 am
   2    1   14 1
   3    1   22 1
   4    2    3 2
   5    2    4 am
   6    4    6 1
   7    4   23 1
   8    5    6 1
   9    5    9 1
  10    6    7 2
  11    7    8 1
  12    8    9 2
  13    8   10 1
  14    9   24 1
  15   10   11 1
  16   10   12 1
  17   10   13 1
  18   14   15 ar
  19   14   19 ar
  20   15   16 ar
  21   15   20 1
  22   16   17 ar
  23   16   25 1
  24   17   18 ar
  25   17   26 1
  26   18   19 ar
  27   18   21 1
  28   19   27 1
  29   20   28 1
  30   20   29 1
  31   20   30 1
  32   21   31 1

#	End of record

