#	Name: ASD01028305
#	Creating user name:	WinNT
#	Creation time:	15. 06. 2019 18:56

#	Modifying user name:	WinNT
#	Modification time:	15. 06. 2019 18:56

#	Program:	/corina/corina34_cracker 3.40 0067  02.08.2006

@<TRIPOS>MOLECULE
ASD01028305
  42   46    0    0    0
SMALL
NO_CHARGES


@<TRIPOS>ATOM
   1 C1            -0.0164     1.3569     0.0095 C.ar    
   2 C2             0.0021    -0.0041     0.0020 C.ar    
   3 C3             1.1672     2.0913     0.0021 C.ar    
   4 C4             2.3770     1.4655    -0.0128 C.ar    
   5 C5             2.4326     0.0642    -0.0209 C.ar    
   6 C6             1.2317    -0.6851    -0.0134 C.ar    
   7 C7             3.6678    -0.6232    -0.0358 C.ar    
   8 C8             3.6397    -2.0060    -0.0426 C.ar    
   9 C9             2.4192    -2.6703    -0.0346 C.ar    
  10 N10            1.2786    -2.0220    -0.0206 N.ar    
  11 O11            4.8435     0.0520    -0.0438 O.3     
  12 C12            6.0401    -0.7289    -0.0589 C.3     
  13 C13            7.2372     0.1864    -0.0659 C.2     
  14 N14            7.8810     0.6654     1.0210 N.pl3   
  15 C15            8.9017     1.4516     0.5413 C.2     
  16 N16            8.8280     1.4111    -0.7790 N.2     
  17 N17            7.8447     0.6563    -1.1268 N.2     
  18 N18            7.7024     0.5129     2.3974 N.2     
  19 C19            8.5055     1.1172     3.2448 C.2     
  20 C20            9.5620     1.9310     2.7836 C.2     
  21 C21            9.7614     2.0979     1.4496 C.2     
  22 C22            8.2983     0.9418     4.7035 C.ar    
  23 C23            7.2581     0.1410     5.1701 C.ar    
  24 C24            7.0687    -0.0196     6.5302 C.ar    
  25 C25            7.9109     0.6146     7.4284 C.ar    
  26 C26            8.9463     1.4117     6.9690 C.ar    
  27 C27            9.1469     1.5729     5.6106 C.ar    
  28 F28            9.7649     2.0280     7.8495 F       
  29 F29            6.0604    -0.7959     6.9838 F       
  30 H30           -0.9637     1.8756     0.0168 H       
  31 H31           -0.9246    -0.5587     0.0083 H       
  32 H32            1.1252     3.1705     0.0080 H       
  33 H33            3.2883     2.0451    -0.0187 H       
  34 H34            4.5624    -2.5671    -0.0544 H       
  35 H35            2.4092    -3.7502    -0.0404 H       
  36 H36            6.0720    -1.3620     0.8279 H       
  37 H37            6.0551    -1.3536    -0.9520 H       
  38 H38           10.2135     2.4214     3.4917 H       
  39 H39           10.5684     2.7196     1.0909 H       
  40 H40            6.6005    -0.3534     4.4704 H       
  41 H41            7.7597     0.4875     8.4902 H       
  42 H42            9.9547     2.1943     5.2532 H       
@<TRIPOS>BOND
   1    1    2 ar
   2    1    3 ar
   3    1   30 1
   4    2    6 ar
   5    2   31 1
   6    3    4 ar
   7    3   32 1
   8    4    5 ar
   9    4   33 1
  10    5    6 ar
  11    5    7 ar
  12    6   10 ar
  13    7    8 ar
  14    7   11 1
  15    8    9 ar
  16    8   34 1
  17    9   10 ar
  18    9   35 1
  19   11   12 1
  20   12   13 1
  21   12   36 1
  22   12   37 1
  23   13   14 1
  24   13   17 2
  25   14   15 1
  26   14   18 1
  27   15   16 2
  28   15   21 1
  29   16   17 1
  30   18   19 2
  31   19   20 1
  32   19   22 1
  33   20   21 2
  34   20   38 1
  35   21   39 1
  36   22   23 ar
  37   22   27 ar
  38   23   24 ar
  39   23   40 1
  40   24   25 ar
  41   24   29 1
  42   25   26 ar
  43   25   41 1
  44   26   27 ar
  45   26   28 1
  46   27   42 1

#	End of record

