#	Name: ASD06390021
#	Creating user name:	WinNT
#	Creation time:	15. 06. 2019 21:06

#	Modifying user name:	WinNT
#	Modification time:	15. 06. 2019 21:06

#	Program:	/corina/corina34_cracker 3.40 0067  02.08.2006

@<TRIPOS>MOLECULE
ASD06390021
  44   45    0    0    0
SMALL
NO_CHARGES


@<TRIPOS>ATOM
   1 Cl1            0.0021    -0.0041     0.0020 Cl      
   2 Cl2           -2.7659     4.6345     0.0540 Cl      
   3 C3            -0.0215     1.7317     0.0116 C.ar    
   4 C4             1.1676     2.4387     0.0040 C.ar    
   5 C5             1.1515     3.8205     0.0120 C.ar    
   6 C6            -0.0576     4.4991     0.0272 C.ar    
   7 O7            -0.0752     5.8584     0.0347 O.3     
   8 C8             1.1894     6.5237     0.0262 C.3     
   9 C9             0.9726     8.0149     0.0363 C.2     
  10 N10            2.0307     8.8498     0.0307 N.am    
  11 C11            1.8353    10.3060     0.0403 C.3     
  12 C12            2.6333    10.9028     1.2039 C.3     
  13 C13            4.0956    10.4655     1.0917 C.3     
  14 N14            4.8684    11.0614     2.1843 N.am    
  15 S15            6.4366    11.5289     1.9304 S.o2    
  16 C16            6.3173    12.8761     0.7215 C.3     
  17 C17            7.7188    13.3993     0.4008 C.3     
  18 O18            6.8625    12.0267     3.1913 O.2     
  19 O19            7.0521    10.3886     1.3471 O.2     
  20 C20            4.1818     8.9401     1.1791 C.3     
  21 C21            3.4014     8.3210     0.0209 C.3     
  22 O22           -0.1540     8.4639     0.0494 O.2     
  23 C23           -1.2503     3.7883     0.0343 C.ar    
  24 C24           -1.2298     2.4063     0.0210 C.ar    
  25 H25            2.1094     1.9102    -0.0078 H       
  26 H26            2.0803     4.3716     0.0068 H       
  27 H27            1.7587     6.2333     0.9092 H       
  28 H28            1.7417     6.2428    -0.8706 H       
  29 H29            2.1892    10.7284    -0.9001 H       
  30 H30            0.7768    10.5318     0.1694 H       
  31 H31            2.5748    11.9905     1.1651 H       
  32 H32            2.2193    10.5492     2.1482 H       
  33 H33            4.5017    10.7979     0.1363 H       
  34 H34            4.4615    11.1822     3.0565 H       
  35 H35            5.8504    12.5052    -0.1910 H       
  36 H36            5.7139    13.6838     1.1359 H       
  37 H37            8.1857    13.7702     1.3133 H       
  38 H38            8.3221    12.5916    -0.0136 H       
  39 H39            7.6471    14.2088    -0.3256 H       
  40 H40            5.2255     8.6308     1.1226 H       
  41 H41            3.7532     8.6050     2.1236 H       
  42 H42            3.3759     7.2375     0.1371 H       
  43 H43            3.8856     8.5782    -0.9212 H       
  44 H44           -2.1571     1.8527     0.0220 H       
@<TRIPOS>BOND
   1    1    3 1
   2    2   23 1
   3    3    4 ar
   4    3   24 ar
   5    4    5 ar
   6    4   25 1
   7    5    6 ar
   8    5   26 1
   9    6    7 1
  10    6   23 ar
  11    7    8 1
  12    8    9 1
  13    8   27 1
  14    8   28 1
  15    9   10 am
  16    9   22 2
  17   10   11 1
  18   10   21 1
  19   11   12 1
  20   11   29 1
  21   11   30 1
  22   12   13 1
  23   12   31 1
  24   12   32 1
  25   13   14 1
  26   13   20 1
  27   13   33 1
  28   14   15 am
  29   14   34 1
  30   15   16 1
  31   15   18 2
  32   15   19 2
  33   16   17 1
  34   16   35 1
  35   16   36 1
  36   17   37 1
  37   17   38 1
  38   17   39 1
  39   20   21 1
  40   20   40 1
  41   20   41 1
  42   21   42 1
  43   21   43 1
  44   23   24 ar
  45   24   44 1

#	End of record

