#	Name: ASD00100019
#	Creating user name:	WinNT
#	Creation time:	15. 06. 2019 18:30

#	Modifying user name:	WinNT
#	Modification time:	15. 06. 2019 18:30

#	Program:	/corina/corina34_cracker 3.40 0067  02.08.2006

@<TRIPOS>MOLECULE
ASD00100019
  60   63    0    0    0
SMALL
NO_CHARGES


@<TRIPOS>ATOM
   1 C1            -0.0184     1.5028     0.0103 C.2     
   2 C2             0.0021    -0.0041     0.0020 C.3     
   3 O3             1.0236     2.1234     0.0037 O.2     
   4 N4            -1.1946     2.1607     0.0195 N.am    
   5 C5             1.3964    -0.4758    -0.0138 C.1     
   6 N6             2.4724    -0.8398    -0.0261 N.1     
   7 C7            -1.2145     3.6256     0.0275 C.3     
   8 C8            -2.5315     4.1210    -0.5732 C.3     
   9 C9            -2.5522     5.6509    -0.5648 C.3     
  10 C10           -2.4266     6.1547     0.8744 C.3     
  11 C11           -1.1096     5.6592     1.4751 C.3     
  12 C12           -1.0888     4.1294     1.4667 C.3     
  13 C13           -2.4474     7.6846     0.8828 C.3     
  14 C14           -2.4475     8.1867     2.3281 C.3     
  15 N15           -2.4674     9.6555     2.3362 N.3     
  16 C16           -2.7062    10.1711     3.6902 C.3     
  17 C17           -2.8652    11.6923     3.6376 C.3     
  18 C18           -1.5944    12.3135     3.0515 C.3     
  19 C19           -1.3419    11.7238     1.6611 C.3     
  20 C20           -1.2270    10.2018     1.7711 C.3     
  21 O21           -2.5446    15.7860     2.3730 O.3     
  22 C22           -2.6989    14.4580     2.2312 C.2     
  23 C23           -1.7681    13.8064     2.9414 C.2     
  24 C24           -0.9519    14.8391     3.5910 C.ar    
  25 C25           -1.5041    16.0654     3.1838 C.ar    
  26 C26            0.1497    14.8163     4.4446 C.ar    
  27 C27            0.6932    16.0028     4.8860 C.ar    
  28 C28            0.1485    17.2137     4.4844 C.ar    
  29 C29           -0.9410    17.2499     3.6405 C.ar    
  30 H30           -0.4983    -0.3791     0.8948 H       
  31 H31           -0.5153    -0.3696    -0.8850 H       
  32 H32           -2.0280     1.6644     0.0207 H       
  33 H33           -0.3805     4.0035    -0.5638 H       
  34 H34           -2.6210     3.7621    -1.5985 H       
  35 H35           -3.3655     3.7431     0.0182 H       
  36 H36           -1.7182     6.0288    -1.1561 H       
  37 H37           -3.4905     6.0039    -0.9927 H       
  38 H38           -3.2606     5.7768     1.4658 H       
  39 H39           -0.2756     6.0372     0.8838 H       
  40 H40           -1.0201     6.0182     2.5004 H       
  41 H41           -1.9228     3.7515     2.0581 H       
  42 H42           -0.1506     3.7764     1.8947 H       
  43 H43           -1.5649     8.0627     0.3669 H       
  44 H44           -3.3446     8.0386     0.3752 H       
  45 H45           -3.3300     7.8085     2.8441 H       
  46 H46           -1.5502     7.8327     2.8358 H       
  47 H47           -3.6149     9.7247     4.0939 H       
  48 H48           -1.8614     9.9163     4.3301 H       
  49 H49           -3.7183    11.9474     3.0089 H       
  50 H50           -3.0269    12.0764     4.6448 H       
  51 H51           -0.7475    12.0913     3.7007 H       
  52 H52           -2.1710    11.9795     1.0013 H       
  53 H53           -0.4152    12.1304     1.2562 H       
  54 H54           -0.3891     9.9467     2.4199 H       
  55 H55           -1.0614     9.7776     0.7807 H       
  56 H56           -3.4626    13.9849     1.6316 H       
  57 H57            0.5745    13.8743     4.7583 H       
  58 H58            1.5466    15.9900     5.5478 H       
  59 H59            0.5824    18.1378     4.8369 H       
  60 H60           -1.3562    18.1988     3.3346 H       
@<TRIPOS>BOND
   1    1    2 1
   2    1    3 2
   3    1    4 am
   4    2    5 1
   5    2   30 1
   6    2   31 1
   7    4    7 1
   8    4   32 1
   9    5    6 3
  10    7    8 1
  11    7   12 1
  12    7   33 1
  13    8    9 1
  14    8   34 1
  15    8   35 1
  16    9   10 1
  17    9   36 1
  18    9   37 1
  19   10   11 1
  20   10   13 1
  21   10   38 1
  22   11   12 1
  23   11   39 1
  24   11   40 1
  25   12   41 1
  26   12   42 1
  27   13   14 1
  28   13   43 1
  29   13   44 1
  30   14   15 1
  31   14   45 1
  32   14   46 1
  33   15   16 1
  34   15   20 1
  35   16   17 1
  36   16   47 1
  37   16   48 1
  38   17   18 1
  39   17   49 1
  40   17   50 1
  41   18   19 1
  42   18   23 1
  43   18   51 1
  44   19   20 1
  45   19   52 1
  46   19   53 1
  47   20   54 1
  48   20   55 1
  49   21   22 1
  50   21   25 1
  51   22   23 2
  52   22   56 1
  53   23   24 1
  54   24   25 ar
  55   24   26 ar
  56   25   29 ar
  57   26   27 ar
  58   26   57 1
  59   27   28 ar
  60   27   58 1
  61   28   29 ar
  62   28   59 1
  63   29   60 1

#	End of record

