#	Name: ASD04370071
#	Creating user name:	WinNT
#	Creation time:	15. 06. 2019 20:49

#	Modifying user name:	WinNT
#	Modification time:	15. 06. 2019 20:49

#	Program:	/corina/corina34_cracker 3.40 0067  02.08.2006

@<TRIPOS>MOLECULE
ASD04370071
  60   60    0    0    0
SMALL
NO_CHARGES


@<TRIPOS>ATOM
   1 C1             3.8868    -0.9724    -0.3481 C.2     
   2 C2             2.7732    -0.0276    -0.7197 C.3     
   3 C3             1.5564    -0.2995     0.1671 C.3     
   4 C4             0.3847     0.5696    -0.2942 C.3     
   5 O5             3.7470    -1.7369     0.5770 O.2     
   6 O6             5.0321    -0.9684    -1.0482 O.3     
   7 N7             1.8846     0.0217     1.5583 N.am    
   8 C8             2.1868     1.2888     1.9041 C.2     
   9 C9             2.4144     1.6409     3.3516 C.3     
  10 C10            2.7392     3.1314     3.4689 C.3     
  11 C11            2.9702     3.4889     4.9385 C.3     
  12 C12            3.2951     4.9794     5.0558 C.3     
  13 C13            3.5260     5.3370     6.5254 C.3     
  14 C14            3.8509     6.8275     6.6427 C.3     
  15 C15            4.0819     7.1850     8.1123 C.3     
  16 C16            4.4067     8.6755     8.2296 C.3     
  17 O17            2.2758     2.1456     1.0504 O.2     
  18 C18            4.6342     9.0276     9.6771 C.ar    
  19 C19            5.9040     8.9449    10.2173 C.ar    
  20 C20            6.1127     9.2678    11.5451 C.ar    
  21 C21            5.0517     9.6740    12.3326 C.ar    
  22 C22            3.7821     9.7576    11.7922 C.ar    
  23 C23            3.5742     9.4388    10.4633 C.ar    
  24 N24           -0.7438     0.4013     0.6311 N.3     
  25 C25           -1.7314     1.4748     0.4576 C.3     
  26 C26           -1.3669    -0.9189     0.4669 C.3     
  27 H27            3.1055     1.0005    -0.5754 H       
  28 H28            2.5022    -0.1785    -1.7647 H       
  29 H29            1.2802    -1.3512     0.0925 H       
  30 H30            0.6911     1.6155    -0.3071 H       
  31 H31            0.0809     0.2676    -1.2965 H       
  32 H32            5.7174    -1.5923    -0.7724 H       
  33 H33            1.8843    -0.6776     2.2305 H       
  34 H34            1.5145     1.4189     3.9253 H       
  35 H35            3.2473     1.0557     3.7413 H       
  36 H36            3.6390     3.3534     2.8952 H       
  37 H37            1.9063     3.7166     3.0792 H       
  38 H38            2.0704     3.2669     5.5122 H       
  39 H39            3.8031     2.9038     5.3282 H       
  40 H40            4.1949     5.2014     4.4821 H       
  41 H41            2.4621     5.5646     4.6661 H       
  42 H42            2.6262     5.1150     7.0991 H       
  43 H43            4.3590     4.7518     6.9151 H       
  44 H44            4.7507     7.0494     6.0690 H       
  45 H45            3.0179     7.4126     6.2530 H       
  46 H46            3.1820     6.9630     8.6860 H       
  47 H47            4.9148     6.5998     8.5020 H       
  48 H48            5.3066     8.8975     7.6559 H       
  49 H49            3.5738     9.2606     7.8399 H       
  50 H50            6.7329     8.6275     9.6020 H       
  51 H51            7.1046     9.2025    11.9673 H       
  52 H52            5.2146     9.9256    13.3702 H       
  53 H53            2.9531    10.0746    12.4076 H       
  54 H54            2.5829     9.5077    10.0402 H       
  55 H55           -2.1722     1.4057    -0.5369 H       
  56 H56           -2.5139     1.3736     1.2096 H       
  57 H57           -1.2410     2.4416     0.5713 H       
  58 H58           -0.6300    -1.6961     0.6694 H       
  59 H59           -2.1993    -1.0169     1.1638 H       
  60 H60           -1.7336    -1.0231    -0.5542 H       
@<TRIPOS>BOND
   1    1    2 1
   2    1    5 2
   3    1    6 1
   4    2    3 1
   5    2   27 1
   6    2   28 1
   7    3    4 1
   8    3    7 1
   9    3   29 1
  10    4   24 1
  11    4   30 1
  12    4   31 1
  13    6   32 1
  14    7    8 am
  15    7   33 1
  16    8    9 1
  17    8   17 2
  18    9   10 1
  19    9   34 1
  20    9   35 1
  21   10   11 1
  22   10   36 1
  23   10   37 1
  24   11   12 1
  25   11   38 1
  26   11   39 1
  27   12   13 1
  28   12   40 1
  29   12   41 1
  30   13   14 1
  31   13   42 1
  32   13   43 1
  33   14   15 1
  34   14   44 1
  35   14   45 1
  36   15   16 1
  37   15   46 1
  38   15   47 1
  39   16   18 1
  40   16   48 1
  41   16   49 1
  42   18   19 ar
  43   18   23 ar
  44   19   20 ar
  45   19   50 1
  46   20   21 ar
  47   20   51 1
  48   21   22 ar
  49   21   52 1
  50   22   23 ar
  51   22   53 1
  52   23   54 1
  53   24   25 1
  54   24   26 1
  55   25   55 1
  56   25   56 1
  57   25   57 1
  58   26   58 1
  59   26   59 1
  60   26   60 1

#	End of record

