#	Name: ASD01190085
#	Creating user name:	WinNT
#	Creation time:	15. 06. 2019 19:07

#	Modifying user name:	WinNT
#	Modification time:	15. 06. 2019 19:07

#	Program:	/corina/corina34_cracker 3.40 0067  02.08.2006

@<TRIPOS>MOLECULE
ASD01190085
  39   42    0    0    0
SMALL
NO_CHARGES


@<TRIPOS>ATOM
   1 C1            -0.0187     1.5258     0.0104 C.3     
   2 C2             0.0676     2.7229     0.9592 C.3     
   3 N3             4.7326     1.3251    -2.9886 N.pl3   
   4 N4             5.6452     1.1849    -1.9379 N.2     
   5 C5             5.0153     1.1648    -0.7975 C.2     
   6 C6             3.5883     1.2984    -1.0729 C.ar    
   7 C7             2.4427     1.3415    -0.2705 C.ar    
   8 C8             1.2158     1.4788    -0.8526 C.ar    
   9 C9             1.0942     1.5752    -2.2335 C.ar    
  10 C10            2.1980     1.5352    -3.0376 C.ar    
  11 C11            3.4626     1.3963    -2.4723 C.ar    
  12 C12            5.0621     1.3887    -4.3488 C.ar    
  13 C13            6.2334     2.0164    -4.7518 C.ar    
  14 C14            6.5564     2.0781    -6.0931 C.ar    
  15 C15            5.7131     1.5145    -7.0359 C.ar    
  16 C16            4.5445     0.8880    -6.6361 C.ar    
  17 C17            4.2207     0.8191    -5.2954 C.ar    
  18 F18            6.0306     1.5762    -8.3476 F       
  19 F19            0.1606     3.9031     0.2137 F       
  20 F20           -1.0784     2.7666     1.7604 F       
  21 F21            1.1996     2.5938     1.7711 F       
  22 C22           -0.1189     0.2545     0.8135 C.2     
  23 C23           -1.0446    -0.6903     0.6445 C.2     
  24 C24           -0.9372    -1.7726     1.5016 C.2     
  25 C25            0.0771    -1.7054     2.3669 C.2     
  26 S26            0.9719    -0.2129     2.1117 S.3     
  27 Cl27           0.4589    -2.9102     3.5570 Cl      
  28 O28           -1.1749     1.6576    -0.8189 O.3     
  29 H29            5.4684     1.0665     0.1779 H       
  30 H30            2.5288     1.2663     0.8034 H       
  31 H31            0.1151     1.6827    -2.6765 H       
  32 H32            2.0897     1.6108    -4.1095 H       
  33 H33            6.8912     2.4564    -4.0168 H       
  34 H34            7.4670     2.5665    -6.4070 H       
  35 H35            3.8880     0.4494    -7.3730 H       
  36 H36            3.3117     0.3263    -4.9836 H       
  37 H37           -1.8197    -0.6167    -0.1040 H       
  38 H38           -1.6220    -2.6072     1.4724 H       
  39 H39           -1.2933     0.9320    -1.4469 H       
@<TRIPOS>BOND
   1    1    2 1
   2    1    8 1
   3    1   22 1
   4    1   28 1
   5    2   19 1
   6    2   20 1
   7    2   21 1
   8    3    4 1
   9    3   11 1
  10    3   12 1
  11    4    5 2
  12    5    6 1
  13    5   29 1
  14    6    7 ar
  15    6   11 ar
  16    7    8 ar
  17    7   30 1
  18    8    9 ar
  19    9   10 ar
  20    9   31 1
  21   10   11 ar
  22   10   32 1
  23   12   13 ar
  24   12   17 ar
  25   13   14 ar
  26   13   33 1
  27   14   15 ar
  28   14   34 1
  29   15   16 ar
  30   15   18 1
  31   16   17 ar
  32   16   35 1
  33   17   36 1
  34   22   23 2
  35   22   26 1
  36   23   24 1
  37   23   37 1
  38   24   25 2
  39   24   38 1
  40   25   26 1
  41   25   27 1
  42   28   39 1

#	End of record

