#	Name: ASD01411156
#	Creating user name:	WinNT
#	Creation time:	15. 06. 2019 19:19

#	Modifying user name:	WinNT
#	Modification time:	15. 06. 2019 19:19

#	Program:	/corina/corina34_cracker 3.40 0067  02.08.2006

@<TRIPOS>MOLECULE
ASD01411156
  51   54    0    0    0
SMALL
NO_CHARGES


@<TRIPOS>ATOM
   1 C1            -0.0166     1.3732     0.0096 C.ar    
   2 C2             0.0021    -0.0041     0.0020 C.ar    
   3 C3             1.2222    -0.6870    -0.0129 C.ar    
   4 C4             2.4223     0.0378    -0.0205 C.ar    
   5 C5             2.3856     1.4307    -0.0131 C.ar    
   6 C6             1.1690     2.0904     0.0021 C.ar    
   7 C7             1.2465    -2.1606    -0.0201 C.2     
   8 O8             3.5448     2.1417    -0.0200 O.3     
   9 C9             3.4321     3.5662    -0.0118 C.3     
  10 C10            4.8089     4.1791    -0.0211 C.ar    
  11 C11            5.4532     4.4488     1.1719 C.ar    
  12 C12            5.4293     4.4661    -1.2227 C.ar    
  13 C13            6.6920     5.0281    -1.2318 C.ar    
  14 C14            7.3350     5.3035    -0.0382 C.ar    
  15 C15            6.7159     5.0108     1.1640 C.ar    
  16 Cl16           8.9209     6.0095    -0.0489 Cl      
  17 O17            0.0907    -2.8535    -0.0122 O.3     
  18 O18            2.3086    -2.7507    -0.0330 O.2     
  19 N19            3.6446    -0.6309    -0.0349 N.am    
  20 C20            4.3835    -1.0355    -1.2363 C.3     
  21 C21            5.6361    -1.7206    -0.7503 C.ar    
  22 C22            4.3444    -1.0067     1.0495 C.2     
  23 C23            6.7060    -2.3066    -1.3973 C.ar    
  24 C24            7.7372    -2.8710    -0.6565 C.ar    
  25 C25            7.6930    -2.8469     0.7255 C.ar    
  26 C26            6.6276    -2.2634     1.3797 C.ar    
  27 C27            5.5861    -1.6928     0.6447 C.ar    
  28 O28            4.0016    -0.8118     2.1994 O.2     
  29 O29            6.7501    -2.3316    -2.7554 O.3     
  30 C30            7.8873    -2.9544    -3.3562 C.3     
  31 C31            7.7626    -2.8872    -4.8566 C.2     
  32 O32            6.7989    -2.3601    -5.3597 O.2     
  33 O33            8.7223    -3.4130    -5.6340 O.3     
  34 H34           -0.9609     1.8972     0.0169 H       
  35 H35           -0.9259    -0.5566     0.0079 H       
  36 H36            1.1436     3.1701     0.0078 H       
  37 H37            2.8833     3.8924    -0.8952 H       
  38 H38            2.8993     3.8834     0.8847 H       
  39 H39            4.9696     4.2206     2.1103 H       
  40 H40            4.9274     4.2507    -2.1544 H       
  41 H41            7.1767     5.2520    -2.1706 H       
  42 H42            7.2190     5.2218     2.0961 H       
  43 H43            0.1572    -3.8182    -0.0174 H       
  44 H44            3.7846    -1.7266    -1.8294 H       
  45 H45            4.6424    -0.1588    -1.8299 H       
  46 H46            8.5747    -3.3297    -1.1610 H       
  47 H47            8.4970    -3.2877     1.2961 H       
  48 H48            6.5989    -2.2482     2.4592 H       
  49 H49            8.7933    -2.4355    -3.0433 H       
  50 H50            7.9388    -3.9969    -3.0423 H       
  51 H51            8.5983    -3.3457    -6.5906 H       
@<TRIPOS>BOND
   1    1    2 ar
   2    1    6 ar
   3    1   34 1
   4    2    3 ar
   5    2   35 1
   6    3    4 ar
   7    3    7 1
   8    4    5 ar
   9    4   19 1
  10    5    6 ar
  11    5    8 1
  12    6   36 1
  13    7   17 1
  14    7   18 2
  15    8    9 1
  16    9   10 1
  17    9   37 1
  18    9   38 1
  19   10   12 ar
  20   10   11 ar
  21   11   15 ar
  22   11   39 1
  23   12   13 ar
  24   12   40 1
  25   13   14 ar
  26   13   41 1
  27   14   15 ar
  28   14   16 1
  29   15   42 1
  30   17   43 1
  31   19   20 1
  32   19   22 am
  33   20   21 1
  34   20   44 1
  35   20   45 1
  36   21   23 ar
  37   21   27 ar
  38   22   28 2
  39   22   27 1
  40   23   24 ar
  41   23   29 1
  42   24   25 ar
  43   24   46 1
  44   25   26 ar
  45   25   47 1
  46   26   27 ar
  47   26   48 1
  48   29   30 1
  49   30   31 1
  50   30   49 1
  51   30   50 1
  52   31   32 2
  53   31   33 1
  54   33   51 1

#	End of record

