#	Name: ASD02198492
#	Creating user name:	WinNT
#	Creation time:	15. 06. 2019 20:19

#	Modifying user name:	WinNT
#	Modification time:	15. 06. 2019 20:19

#	Program:	/corina/corina34_cracker 3.40 0067  02.08.2006

@<TRIPOS>MOLECULE
ASD02198492
  51   55    0    0    0
SMALL
NO_CHARGES


@<TRIPOS>ATOM
   1 C1            -0.2699     0.8573     0.7537 C.2     
   2 C2            -0.0215    -0.4650     0.9291 C.2     
   3 N3             1.1849    -0.9907     0.6191 N.pl3   
   4 N4             2.1554    -0.2973     0.1497 N.2     
   5 C5             2.0488     0.9959    -0.0690 C.2     
   6 C6             0.7731     1.6628     0.2369 C.2     
   7 C7             1.3842    -2.3605     0.8212 C.ar    
   8 C8             2.3901    -4.1637     2.0599 C.ar    
   9 C9             1.7792    -5.0749     1.2201 C.ar    
  10 C10            0.9779    -4.6359     0.1811 C.ar    
  11 C11            0.7791    -3.2838    -0.0203 C.ar    
  12 C12            3.1882     1.7638    -0.6110 C.2     
  13 N13            3.1817     2.5429    -1.7337 N.pl3   
  14 N14            4.4637     3.0865    -1.8832 N.2     
  15 C15            5.2182     2.6618    -0.9011 C.2     
  16 C16            4.4561     1.8342    -0.0765 C.2     
  17 C17            2.0890     2.7585    -2.5831 C.ar    
  18 C18            1.2570     1.7016    -2.9283 C.ar    
  19 O19            0.6205     2.8611     0.0522 O.2     
  20 C20            2.1967    -2.8032     1.8659 C.ar    
  21 C21            1.8321     4.0306    -3.0772 C.ar    
  22 C22            0.7536     4.2400    -3.9141 C.ar    
  23 C23           -0.0703     3.1846    -4.2598 C.ar    
  24 C24            0.1801     1.9175    -3.7657 C.ar    
  25 N25            2.8136    -1.8800     2.7133 N.3     
  26 C26            4.2765    -1.9374     2.5793 C.3     
  27 C27            2.4096    -2.0952     4.1103 C.3     
  28 C28            3.0600    -1.0277     4.9942 C.3     
  29 O29            4.4794    -1.0777     4.8273 O.3     
  30 C30            4.9081    -0.8714     3.4786 C.3     
  31 H31           -1.2334     1.2807     0.9963 H       
  32 H32           -0.7973    -1.1057     1.3217 H       
  33 H33            3.0146    -4.5103     2.8700 H       
  34 H34            1.9312    -6.1332     1.3724 H       
  35 H35            0.5032    -5.3529    -0.4724 H       
  36 H36            0.1526    -2.9451    -0.8322 H       
  37 H37            6.2576     2.9142    -0.7516 H       
  38 H38            4.8000     1.3328     0.8161 H       
  39 H39            1.4519     0.7119    -2.5427 H       
  40 H40            2.4748     4.8554    -2.8070 H       
  41 H41            0.5533     5.2291    -4.2987 H       
  42 H42           -0.9134     3.3510    -4.9139 H       
  43 H43           -0.4652     1.0953    -4.0375 H       
  44 H44            4.6310    -2.9235     2.8794 H       
  45 H45            4.5546    -1.7500     1.5422 H       
  46 H46            1.3250    -2.0230     4.1908 H       
  47 H47            2.7343    -3.0838     4.4349 H       
  48 H48            2.6939    -0.0427     4.7044 H       
  49 H49            2.8093    -1.2172     6.0380 H       
  50 H50            5.9942    -0.9480     3.4261 H       
  51 H51            4.5958     0.1180     3.1447 H       
@<TRIPOS>BOND
   1    1    2 2
   2    1    6 1
   3    1   31 1
   4    2    3 1
   5    2   32 1
   6    3    4 1
   7    3    7 1
   8    4    5 2
   9    5    6 1
  10    5   12 1
  11    6   19 2
  12    7   20 ar
  13    7   11 ar
  14    8    9 ar
  15    8   20 ar
  16    8   33 1
  17    9   10 ar
  18    9   34 1
  19   10   11 ar
  20   10   35 1
  21   11   36 1
  22   12   13 1
  23   12   16 2
  24   13   14 1
  25   13   17 1
  26   14   15 2
  27   15   16 1
  28   15   37 1
  29   16   38 1
  30   17   21 ar
  31   17   18 ar
  32   18   24 ar
  33   18   39 1
  34   20   25 1
  35   21   22 ar
  36   21   40 1
  37   22   23 ar
  38   22   41 1
  39   23   24 ar
  40   23   42 1
  41   24   43 1
  42   25   26 1
  43   25   27 1
  44   26   30 1
  45   26   44 1
  46   26   45 1
  47   27   28 1
  48   27   46 1
  49   27   47 1
  50   28   29 1
  51   28   48 1
  52   28   49 1
  53   29   30 1
  54   30   50 1
  55   30   51 1

#	End of record

