#	Name: ASD01883435
#	Creating user name:	WinNT
#	Creation time:	15. 06. 2019 19:46

#	Modifying user name:	WinNT
#	Modification time:	15. 06. 2019 19:46

#	Program:	/corina/corina34_cracker 3.40 0067  02.08.2006

@<TRIPOS>MOLECULE
ASD01883435
  55   57    0    0    0
SMALL
NO_CHARGES


@<TRIPOS>ATOM
   1 N1            -0.0080     1.3271     0.0354 N.am    
   2 C2            -0.3623     0.6471    -1.0708 C.2     
   3 C3            -1.5938    -0.0487    -1.1070 C.2     
   4 C4            -2.4239    -0.0108     0.0261 C.2     
   5 C5            -1.9981     0.7175     1.1524 C.2     
   6 C6            -0.8092     1.3586     1.1319 C.2     
   7 O7             0.3768     0.6309    -2.0406 O.2     
   8 C8            -1.9868    -0.7769    -2.2757 C.1     
   9 N9            -2.2985    -1.3546    -3.2029 N.1     
  10 N10           -3.6309    -0.6732     0.0341 N.pl3   
  11 C11           -4.8919     0.0702     0.1608 C.3     
  12 C12           -5.6944    -0.5155     1.3268 C.3     
  13 C13           -5.8708    -2.0207     1.1144 C.3     
  14 C14           -4.4985    -2.6976     1.0843 C.3     
  15 C15           -3.6827    -2.1362    -0.0901 C.3     
  16 C16            1.2701     2.0427     0.0594 C.3     
  17 C17            1.0645     3.4711    -0.4488 C.3     
  18 C18            2.3993     4.2185    -0.4237 C.3     
  19 C19            2.2199     5.6040    -1.0473 C.3     
  20 C20            2.8729     4.3680     1.0235 C.3     
  21 C21           -6.6890    -2.5945     2.2424 C.2     
  22 C22           -7.4589    -3.8319     2.0376 C.ar    
  23 O23           -6.7131    -2.0366     3.3187 O.2     
  24 C24           -8.2194    -4.3675     3.0819 C.ar    
  25 C25           -8.9384    -5.5270     2.8820 C.ar    
  26 C26           -8.9083    -6.1608     1.6519 C.ar    
  27 C27           -8.1577    -5.6373     0.6136 C.ar    
  28 C28           -7.4383    -4.4752     0.7959 C.ar    
  29 H29           -2.6200     0.7608     2.0343 H       
  30 H30           -0.4930     1.9144     2.0022 H       
  31 H31           -4.6785     1.1212     0.3555 H       
  32 H32           -5.4656    -0.0236    -0.7613 H       
  33 H33           -5.1602    -0.3399     2.2606 H       
  34 H34           -6.6729    -0.0373     1.3715 H       
  35 H35           -6.3831    -2.1964     0.1685 H       
  36 H36           -3.9756    -2.5016     2.0204 H       
  37 H37           -4.6258    -3.7726     0.9564 H       
  38 H38           -4.1593    -2.4118    -1.0309 H       
  39 H39           -2.6709    -2.5405    -0.0585 H       
  40 H40            1.6512     2.0716     1.0802 H       
  41 H41            1.9865     1.5287    -0.5814 H       
  42 H42            0.6835     3.4422    -1.4696 H       
  43 H43            0.3482     3.9852     0.1920 H       
  44 H44            3.1407     3.6573    -0.9924 H       
  45 H45            1.4785     6.1652    -0.4785 H       
  46 H46            3.1708     6.1365    -1.0294 H       
  47 H47            1.8825     5.4975    -2.0783 H       
  48 H48            2.1315     4.9292     1.5923 H       
  49 H49            3.0008     3.3809     1.4678 H       
  50 H50            3.8239     4.9004     1.0414 H       
  51 H51           -8.2433    -3.8745     4.0425 H       
  52 H52           -9.5262    -5.9419     3.6874 H       
  53 H53           -9.4733    -7.0689     1.5016 H       
  54 H54           -8.1388    -6.1380    -0.3431 H       
  55 H55           -6.8530    -4.0678    -0.0152 H       
@<TRIPOS>BOND
   1    1    2 am
   2    1   16 1
   3    1    6 1
   4    2    3 1
   5    2    7 2
   6    3    4 2
   7    3    8 1
   8    4    5 1
   9    4   10 1
  10    5    6 2
  11    5   29 1
  12    6   30 1
  13    8    9 3
  14   10   11 1
  15   10   15 1
  16   11   12 1
  17   11   31 1
  18   11   32 1
  19   12   13 1
  20   12   33 1
  21   12   34 1
  22   13   14 1
  23   13   21 1
  24   13   35 1
  25   14   15 1
  26   14   36 1
  27   14   37 1
  28   15   38 1
  29   15   39 1
  30   16   17 1
  31   16   40 1
  32   16   41 1
  33   17   18 1
  34   17   42 1
  35   17   43 1
  36   18   19 1
  37   18   20 1
  38   18   44 1
  39   19   45 1
  40   19   46 1
  41   19   47 1
  42   20   48 1
  43   20   49 1
  44   20   50 1
  45   21   22 1
  46   21   23 2
  47   22   24 ar
  48   22   28 ar
  49   24   25 ar
  50   24   51 1
  51   25   26 ar
  52   25   52 1
  53   26   27 ar
  54   26   53 1
  55   27   28 ar
  56   27   54 1
  57   28   55 1

#	End of record

