#	Name: ASD01410342
#	Creating user name:	WinNT
#	Creation time:	15. 06. 2019 19:17

#	Modifying user name:	WinNT
#	Modification time:	15. 06. 2019 19:17

#	Program:	/corina/corina34_cracker 3.40 0067  02.08.2006

@<TRIPOS>MOLECULE
ASD01410342
  55   58    0    0    0
SMALL
NO_CHARGES


@<TRIPOS>ATOM
   1 S1            -0.0218     1.7542     0.0117 S.3     
   2 C2             0.0021    -0.0041     0.0020 C.2     
   3 C3             1.2794    -0.4374    -0.0125 C.2     
   4 C4             2.2327     0.5819    -0.0161 C.2     
   5 C5             1.7351     1.8147    -0.0048 C.2     
   6 N6             2.5943    -2.4445    -0.8270 N.pl3   
   7 C7             1.6390    -1.8706    -0.0228 C.2     
   8 C8             1.0777    -2.8271     0.7616 C.2     
   9 C9             1.6955    -4.0612     0.4496 C.ar    
  10 C10            2.6455    -3.7987    -0.5589 C.ar    
  11 C11            1.5276    -5.3683     0.9304 C.ar    
  12 C12            2.2845    -6.3813     0.4279 C.ar    
  13 C13            3.2362    -6.1286    -0.5721 C.ar    
  14 C14            3.4107    -4.8355    -1.0658 C.ar    
  15 C15           -1.2319    -3.4539     1.4111 C.3     
  16 C16           -2.3358    -3.2356     2.4477 C.3     
  17 C17           -1.8286    -3.6548     3.8289 C.3     
  18 C18           -0.6063    -2.8129     4.2005 C.3     
  19 C19            0.4976    -3.0313     3.1639 C.3     
  20 C20           -0.0096    -2.6120     1.7827 C.3     
  21 C21            3.4181    -1.7378    -1.8110 C.3     
  22 C22            4.6842    -1.2546    -1.1518 C.2     
  23 O23            4.8792    -1.4786     0.0241 O.2     
  24 C24            6.8307    -0.1039    -1.2282 C.3     
  25 N25            5.5998    -0.5737    -1.8690 N.am    
  26 C26            5.3642    -0.3031    -3.2894 C.3     
  27 C27            4.0491    -7.2343    -1.1075 C.2     
  28 O28            4.8739    -7.0182    -1.9735 O.2     
  29 O29            3.8781    -8.4857    -0.6371 O.3     
  30 H30           -0.8714    -0.6392     0.0073 H       
  31 H31            3.2944     0.3842    -0.0270 H       
  32 H32            2.3236     2.7202    -0.0055 H       
  33 H33            0.7975    -5.5707     1.7001 H       
  34 H34            2.1523    -7.3861     0.8012 H       
  35 H35            4.1434    -4.6430    -1.8356 H       
  36 H36           -0.9549    -4.5080     1.3919 H       
  37 H37           -1.5933    -3.1552     0.4271 H       
  38 H38           -2.6129    -2.1815     2.4669 H       
  39 H39           -3.2066    -3.8354     2.1830 H       
  40 H40           -2.6150    -3.4993     4.5674 H       
  41 H41           -1.5515    -4.7089     3.8097 H       
  42 H42           -0.8833    -1.7589     4.2197 H       
  43 H43           -0.2449    -3.1116     5.1845 H       
  44 H44            1.3684    -2.4315     3.4286 H       
  45 H45            0.7747    -4.0853     3.1447 H       
  46 H46           -0.2867    -1.5580     1.8019 H       
  47 H47            3.6691    -2.4145    -2.6278 H       
  48 H48            2.8642    -0.8848    -2.2030 H       
  49 H49            6.6712     0.8957    -0.8240 H       
  50 H50            7.1018    -0.7835    -0.4203 H       
  51 H51            7.6347    -0.0745    -1.9635 H       
  52 H52            5.7705    -1.1192    -3.8870 H       
  53 H53            4.2927    -0.2188    -3.4704 H       
  54 H54            5.8542     0.6299    -3.5677 H       
  55 H55            4.4345    -9.1782    -1.0191 H       
@<TRIPOS>BOND
   1    1    2 1
   2    1    5 1
   3    2    3 2
   4    2   30 1
   5    3    4 1
   6    3    7 1
   7    4    5 2
   8    4   31 1
   9    5   32 1
  10    6    7 1
  11    6   21 1
  12    6   10 1
  13    7    8 2
  14    8    9 1
  15    8   20 1
  16    9   10 ar
  17    9   11 ar
  18   10   14 ar
  19   11   12 ar
  20   11   33 1
  21   12   13 ar
  22   12   34 1
  23   13   14 ar
  24   13   27 1
  25   14   35 1
  26   15   16 1
  27   15   20 1
  28   15   36 1
  29   15   37 1
  30   16   17 1
  31   16   38 1
  32   16   39 1
  33   17   18 1
  34   17   40 1
  35   17   41 1
  36   18   19 1
  37   18   42 1
  38   18   43 1
  39   19   20 1
  40   19   44 1
  41   19   45 1
  42   20   46 1
  43   21   22 1
  44   21   47 1
  45   21   48 1
  46   22   23 2
  47   22   25 am
  48   24   25 1
  49   24   49 1
  50   24   50 1
  51   24   51 1
  52   25   26 1
  53   26   52 1
  54   26   53 1
  55   26   54 1
  56   27   28 2
  57   27   29 1
  58   29   55 1

#	End of record

