#	Name: ASD03730722
#	Creating user name:	WinNT
#	Creation time:	15. 06. 2019 20:44

#	Modifying user name:	WinNT
#	Modification time:	15. 06. 2019 20:44

#	Program:	/corina/corina34_cracker 3.40 0067  02.08.2006

@<TRIPOS>MOLECULE
ASD03730722
  75   82    0    0    0
SMALL
NO_CHARGES


@<TRIPOS>ATOM
   1 C1            -0.1141     1.3406    -0.0384 C.2     
   2 C2            -0.2525    -0.1308     0.0028 C.ar    
   3 C3             0.8822    -0.9430    -0.0368 C.ar    
   4 C4             0.7462    -2.3151     0.0025 C.ar    
   5 C5            -0.5116    -2.8867     0.0806 C.ar    
   6 C6            -1.6401    -2.0876     0.1201 C.ar    
   7 C7            -1.5177    -0.7136     0.0873 C.ar    
   8 O8             0.4511     1.8719    -0.9743 O.2     
   9 N9            -0.6195     2.0932     0.9589 N.am    
  10 C10            2.2527    -0.3221    -0.1228 C.3     
  11 O11            2.3730    -7.2526    -2.0322 O.3     
  12 C12            3.0374    -8.5174    -2.2102 C.3     
  13 O13            4.3427    -8.1529    -2.6964 O.3     
  14 C14            4.5804    -6.9017    -2.2036 C.ar    
  15 C15            3.3686    -6.3482    -1.7963 C.ar    
  16 C16            5.7518    -6.1788    -2.0665 C.ar    
  17 C17            5.7302    -4.8973    -1.5245 C.ar    
  18 C18            4.5126    -4.3518    -1.1289 C.ar    
  19 C19            3.3437    -5.0724    -1.2586 C.ar    
  20 O20            6.7586    -4.0329    -1.2889 O.3     
  21 C21            4.8086    -2.9669    -0.6186 C.3     
  22 C22            6.2325    -2.7016    -1.1263 C.3     
  23 N23            3.2704    -1.3737    -0.0533 N.am    
  24 C24            3.8316    -1.9503    -1.1348 C.2     
  25 C25            4.7220    -2.8787     0.8762 C.ar    
  26 C26            5.3559    -3.5367     1.9065 C.ar    
  27 C27            5.0534    -3.2226     3.2194 C.ar    
  28 C28            4.1126    -2.2469     3.4945 C.ar    
  29 C29            3.4743    -1.5856     2.4660 C.ar    
  30 C30            3.7728    -1.8950     1.1413 C.ar    
  31 O31            3.5942    -1.6972    -2.2970 O.2     
  32 C32           -0.4015     3.5419     0.9661 C.3     
  33 C33           -1.5227     4.2223     0.2238 C.ar    
  34 C34           -2.6582     4.6228     0.9028 C.ar    
  35 C35           -3.6867     5.2469     0.2219 C.ar    
  36 C36           -3.5795     5.4709    -1.1379 C.ar    
  37 C37           -2.4436     5.0712    -1.8168 C.ar    
  38 C38           -1.4133     4.4510    -1.1351 C.ar    
  39 C39           -1.3870     1.4626     2.0357 C.3     
  40 C40           -0.4779     1.1872     3.2057 C.ar    
  41 C41           -0.2213     2.1819     4.1307 C.ar    
  42 C42            0.6126     1.9294     5.2039 C.ar    
  43 C43            1.1895     0.6820     5.3523 C.ar    
  44 C44            0.9321    -0.3130     4.4278 C.ar    
  45 C45            0.0948    -0.0618     3.3570 C.ar    
  46 H46            1.6232    -2.9446    -0.0280 H       
  47 H47           -0.6127    -3.9616     0.1104 H       
  48 H48           -2.6189    -2.5400     0.1810 H       
  49 H49           -2.3992    -0.0907     0.1224 H       
  50 H50            2.3495     0.2155    -1.0660 H       
  51 H51            2.3900     0.3717     0.7066 H       
  52 H52            3.1164    -9.0456    -1.2601 H       
  53 H53            2.5112    -9.1263    -2.9454 H       
  54 H54            6.6894    -6.6120    -2.3822 H       
  55 H55            2.4065    -4.6403    -0.9403 H       
  56 H56            6.8093    -2.1449    -0.3878 H       
  57 H57            6.2114    -2.1745    -2.0802 H       
  58 H58            6.0901    -4.2985     1.6893 H       
  59 H59            5.5510    -3.7379     4.0277 H       
  60 H60            3.8763    -2.0018     4.5195 H       
  61 H61            2.7404    -0.8252     2.6888 H       
  62 H62           -0.3768     3.9005     1.9951 H       
  63 H63            0.5469     3.7690     0.4793 H       
  64 H64           -2.7420     4.4478     1.9653 H       
  65 H65           -4.5741     5.5592     0.7523 H       
  66 H66           -4.3833     5.9579    -1.6700 H       
  67 H67           -2.3599     5.2459    -2.8793 H       
  68 H68           -0.5242     4.1420    -1.6648 H       
  69 H69           -2.1899     2.1300     2.3486 H       
  70 H70           -1.8125     0.5251     1.6777 H       
  71 H71           -0.6720     3.1565     4.0147 H       
  72 H72            0.8136     2.7067     5.9261 H       
  73 H73            1.8415     0.4849     6.1904 H       
  74 H74            1.3831    -1.2875     4.5437 H       
  75 H75           -0.1092    -0.8402     2.6368 H       
@<TRIPOS>BOND
   1    1    2 1
   2    1    8 2
   3    1    9 am
   4    2    3 ar
   5    2    7 ar
   6    3    4 ar
   7    3   10 1
   8    4    5 ar
   9    4   46 1
  10    5    6 ar
  11    5   47 1
  12    6    7 ar
  13    6   48 1
  14    7   49 1
  15    9   32 1
  16    9   39 1
  17   10   23 1
  18   10   50 1
  19   10   51 1
  20   11   12 1
  21   11   15 1
  22   12   13 1
  23   12   52 1
  24   12   53 1
  25   13   14 1
  26   14   15 ar
  27   14   16 ar
  28   15   19 ar
  29   16   17 ar
  30   16   54 1
  31   17   18 ar
  32   17   20 1
  33   18   19 ar
  34   18   21 1
  35   19   55 1
  36   20   22 1
  37   21   22 1
  38   21   24 1
  39   21   25 1
  40   22   56 1
  41   22   57 1
  42   23   24 am
  43   23   30 1
  44   24   31 2
  45   25   26 ar
  46   25   30 ar
  47   26   27 ar
  48   26   58 1
  49   27   28 ar
  50   27   59 1
  51   28   29 ar
  52   28   60 1
  53   29   30 ar
  54   29   61 1
  55   32   33 1
  56   32   62 1
  57   32   63 1
  58   33   34 ar
  59   33   38 ar
  60   34   35 ar
  61   34   64 1
  62   35   36 ar
  63   35   65 1
  64   36   37 ar
  65   36   66 1
  66   37   38 ar
  67   37   67 1
  68   38   68 1
  69   39   40 1
  70   39   69 1
  71   39   70 1
  72   40   41 ar
  73   40   45 ar
  74   41   42 ar
  75   41   71 1
  76   42   43 ar
  77   42   72 1
  78   43   44 ar
  79   43   73 1
  80   44   45 ar
  81   44   74 1
  82   45   75 1

#	End of record

