#	Name: ASD08150570
#	Creating user name:	WinNT
#	Creation time:	15. 06. 2019 21:16

#	Modifying user name:	WinNT
#	Modification time:	15. 06. 2019 21:16

#	Program:	/corina/corina34_cracker 3.40 0067  02.08.2006

@<TRIPOS>MOLECULE
ASD08150570
  43   47    0    0    0
SMALL
NO_CHARGES


@<TRIPOS>ATOM
   1 N1             0.8857     2.9203    -1.4930 N.am    
   2 C2             1.3139     2.2979    -2.6084 C.2     
   3 C3             2.5237     1.5744    -2.6144 C.2     
   4 C4             3.2778     1.4952    -1.4886 C.2     
   5 C5             2.8304     2.1487    -0.3132 C.ar    
   6 C6             3.5746     2.0984     0.8810 C.ar    
   7 N7             3.1598     2.7025     1.9637 N.ar    
   8 C8             2.0136     3.3988     2.0025 C.ar    
   9 C9             1.2005     3.5030     0.8471 C.ar    
  10 C10            1.6212     2.8606    -0.3410 C.ar    
  11 C11           -0.3671     4.8438     2.0829 C.ar    
  12 C12            0.4424     4.7359     3.2222 C.ar    
  13 C13            1.6056     4.0321     3.1880 C.ar    
  14 O14            0.6458     2.3609    -3.6264 O.2     
  15 C15           -0.3169     3.6376    -1.5144 C.ar    
  16 C16           -0.3112     4.9962    -1.8018 C.ar    
  17 C17           -1.4981     5.7017    -1.8223 C.ar    
  18 C18           -2.6937     5.0552    -1.5566 C.ar    
  19 C19           -2.7016     3.7004    -1.2697 C.ar    
  20 C20           -1.5175     2.9900    -1.2538 C.ar    
  21 C21            0.0076     4.2307     0.8984 C.ar    
  22 C22           -1.6310     5.6176     2.1459 C.ar    
  23 C23           -2.7554     5.1917     1.4443 C.ar    
  24 F24           -3.8538     5.7473    -1.5768 F       
  25 N25           -3.8805     5.8763     1.4981 N.ar    
  26 C26           -3.9882     6.9844     2.2126 C.ar    
  27 C27           -2.9087     7.4728     2.9396 C.ar    
  28 C28           -1.7119     6.7832     2.9161 C.ar    
  29 O29           -5.1681     7.6534     2.2357 O.3     
  30 H30            2.8515     1.0813    -3.5176 H       
  31 H31            4.2052     0.9418    -1.4883 H       
  32 H32            4.5050     1.5504     0.9031 H       
  33 H33            0.1385     5.2185     4.1394 H       
  34 H34            2.2173     3.9596     4.0751 H       
  35 H35            0.6210     5.5008    -2.0087 H       
  36 H36           -1.4940     6.7584    -2.0455 H       
  37 H37           -3.6350     3.1982    -1.0624 H       
  38 H38           -1.5242     1.9334    -1.0304 H       
  39 H39           -0.6167     4.3144     0.0211 H       
  40 H40           -2.7052     4.2915     0.8498 H       
  41 H41           -3.0059     8.3785     3.5198 H       
  42 H42           -0.8571     7.1396     3.4717 H       
  43 H43           -5.7662     7.3718     2.9415 H       
@<TRIPOS>BOND
   1    1    2 am
   2    1   10 1
   3    1   15 1
   4    2    3 1
   5    2   14 2
   6    3    4 2
   7    3   30 1
   8    4    5 1
   9    4   31 1
  10    5    6 ar
  11    5   10 ar
  12    6    7 ar
  13    6   32 1
  14    7    8 ar
  15    8    9 ar
  16    8   13 ar
  17    9   10 ar
  18    9   21 ar
  19   11   12 ar
  20   11   22 1
  21   11   21 ar
  22   12   13 ar
  23   12   33 1
  24   13   34 1
  25   15   16 ar
  26   15   20 ar
  27   16   17 ar
  28   16   35 1
  29   17   18 ar
  30   17   36 1
  31   18   19 ar
  32   18   24 1
  33   19   20 ar
  34   19   37 1
  35   20   38 1
  36   21   39 1
  37   22   23 ar
  38   22   28 ar
  39   23   25 ar
  40   23   40 1
  41   25   26 ar
  42   26   27 ar
  43   26   29 1
  44   27   28 ar
  45   27   41 1
  46   28   42 1
  47   29   43 1

#	End of record

