#	Name: ASD08710032
#	Creating user name:	WinNT
#	Creation time:	15. 06. 2019 21:19

#	Modifying user name:	WinNT
#	Modification time:	15. 06. 2019 21:19

#	Program:	/corina/corina34_cracker 3.40 0067  02.08.2006

@<TRIPOS>MOLECULE
ASD08710032
  55   58    0    0    0
SMALL
NO_CHARGES


@<TRIPOS>ATOM
   1 C1            -0.4779    -0.3326    -1.4563 C.ar    
   2 C2            -0.4523    -1.6800    -1.1482 C.ar    
   3 C3             0.7028     0.3425    -1.7034 C.ar    
   4 C4             1.9091    -0.3298    -1.6424 C.ar    
   5 C5             1.9348    -1.6770    -1.3339 C.ar    
   6 C6             0.7540    -2.3522    -1.0873 C.ar    
   7 S7             0.7868    -4.0693    -0.6935 S.o2    
   8 O8            -0.4925    -4.5841    -1.0366 O.2     
   9 O9             1.9995    -4.5808    -1.2291 O.2     
  10 N10            0.9141    -4.1923     0.9530 N.am    
  11 C11           -0.2897    -4.2496     1.7941 C.3     
  12 C12            2.2329    -4.2524     1.5988 C.3     
  13 C13            2.2961    -5.5146     2.4676 C.3     
  14 N14            1.0924    -5.5663     3.3092 N.am    
  15 C15           -0.2211    -5.5119     2.6626 C.3     
  16 C16            1.1961    -5.6673     4.6492 C.2     
  17 C17            2.3492    -6.7531     1.5709 C.3     
  18 C18           -0.0154    -5.5626     5.4960 C.ar    
  19 O19            2.2830    -5.8442     5.1628 O.2     
  20 N20           -1.1024    -4.9668     5.0186 N.ar    
  21 C21           -2.2015    -4.8508     5.7339 C.ar    
  22 C22           -2.2684    -5.3485     7.0218 C.ar    
  23 C23           -1.1524    -5.9824     7.5663 C.ar    
  24 C24           -0.0056    -6.0940     6.7807 C.ar    
  25 N25           -1.1836    -6.4951     8.8600 N.3     
  26 F26            0.7655     2.5611    -0.8621 F       
  27 F27            1.7553     2.1194    -2.8731 F       
  28 C28            0.6748     1.8112    -2.0397 C.3     
  29 F29           -0.5223     2.1166    -2.6960 F       
  30 C30            0.1154    -6.3102     9.5333 C.3     
  31 C31           -0.6595    -5.9284    10.8023 C.3     
  32 C32           -1.7495    -5.5134     9.8040 C.3     
  33 H33           -1.4208     0.1916    -1.5083 H       
  34 H34           -1.3748    -2.2073    -0.9548 H       
  35 H35            2.8315     0.1975    -1.8361 H       
  36 H36            2.8772    -2.2024    -1.2870 H       
  37 H37           -0.3316    -3.3677     2.4333 H       
  38 H38           -1.1764    -4.2885     1.1615 H       
  39 H39            3.0117    -4.2931     0.8372 H       
  40 H40            2.3747    -3.3706     2.2237 H       
  41 H41            3.1833    -5.4795     3.0999 H       
  42 H42           -1.0015    -5.4703     3.4224 H       
  43 H43           -0.3595    -6.3962     2.0405 H       
  44 H44            3.2347    -6.7051     0.9371 H       
  45 H45            2.3941    -7.6488     2.1905 H       
  46 H46            1.4567    -6.7879     0.9461 H       
  47 H47           -3.0637    -4.3591     5.3083 H       
  48 H48           -3.1750    -5.2472     7.5998 H       
  49 H49            0.8789    -6.5786     7.1671 H       
  50 H50            0.6872    -7.2326     9.6346 H       
  51 H51            0.7051    -5.4911     9.1217 H       
  52 H52           -0.9303    -6.7760    11.4318 H       
  53 H53           -0.2241    -5.0982    11.3583 H       
  54 H54           -1.6574    -4.4817     9.4647 H       
  55 H55           -2.7582    -5.7606    10.1349 H       
@<TRIPOS>BOND
   1    1    2 ar
   2    1    3 ar
   3    1   33 1
   4    2    6 ar
   5    2   34 1
   6    3    4 ar
   7    3   28 1
   8    4    5 ar
   9    4   35 1
  10    5    6 ar
  11    5   36 1
  12    6    7 1
  13    7    8 2
  14    7    9 2
  15    7   10 am
  16   10   11 1
  17   10   12 1
  18   11   15 1
  19   11   37 1
  20   11   38 1
  21   12   13 1
  22   12   39 1
  23   12   40 1
  24   13   14 1
  25   13   17 1
  26   13   41 1
  27   14   15 1
  28   14   16 am
  29   15   42 1
  30   15   43 1
  31   16   18 1
  32   16   19 2
  33   17   44 1
  34   17   45 1
  35   17   46 1
  36   18   20 ar
  37   18   24 ar
  38   20   21 ar
  39   21   22 ar
  40   21   47 1
  41   22   23 ar
  42   22   48 1
  43   23   24 ar
  44   23   25 1
  45   24   49 1
  46   25   30 1
  47   25   32 1
  48   26   28 1
  49   27   28 1
  50   28   29 1
  51   30   31 1
  52   30   50 1
  53   30   51 1
  54   31   32 1
  55   31   52 1
  56   31   53 1
  57   32   54 1
  58   32   55 1

#	End of record

