#	Name: ASD00960143
#	Creating user name:	WinNT
#	Creation time:	15. 06. 2019 18:53

#	Modifying user name:	WinNT
#	Modification time:	15. 06. 2019 18:53

#	Program:	/corina/corina34_cracker 3.40 0067  02.08.2006

@<TRIPOS>MOLECULE
ASD00960143
  36   38    0    0    0
SMALL
NO_CHARGES


@<TRIPOS>ATOM
   1 C1            -0.0187     1.5258     0.0104 C.3     
   2 C2            -0.7939     2.0498     1.2396 C.3     
   3 O3            -2.1388     2.2699     0.7613 O.3     
   4 C4            -1.9852     2.8481    -0.5533 C.3     
   5 C5            -3.2663     2.6636    -1.3692 C.3     
   6 C6            -0.7904     1.0203     2.3401 C.2     
   7 C7             0.1948     0.8565     3.2629 C.2     
   8 N8            -1.7642     0.1208     2.5694 N.pl3   
   9 C9            -1.4025    -0.6496     3.6620 C.2     
  10 C10           -0.1741    -0.1954     4.1045 C.2     
  11 N11           -2.9880    -0.1503     1.9413 N.2     
  12 C12           -3.7532    -1.1071     2.3882 C.2     
  13 N13           -3.4183    -1.8559     3.4383 N.2     
  14 C14           -2.2817    -1.6687     4.0898 C.2     
  15 N15           -1.9597    -2.4594     5.1744 N.pl3   
  16 C16           -0.8173     2.0630    -1.1982 C.3     
  17 O17           -0.0073     2.9327    -1.9916 O.3     
  18 C18            0.0021    -0.0041     0.0020 C.3     
  19 O19           -4.3194     3.4310    -0.7825 O.3     
  20 O20            1.3133     2.0434     0.0005 O.3     
  21 F21            0.5335    -0.6766     5.1499 F       
  22 H22           -0.3588     2.9849     1.5922 H       
  23 H23           -1.7328     3.9056    -0.4756 H       
  24 H24           -3.0974     3.0006    -2.3919 H       
  25 H25           -3.5446     1.6097    -1.3752 H       
  26 H26            1.1028     1.4372     3.3326 H       
  27 H27           -4.6917    -1.2993     1.8896 H       
  28 H28           -2.5681    -3.1574     5.4633 H       
  29 H29           -1.1250    -2.3170     5.6476 H       
  30 H30           -1.1981     1.2386    -1.8010 H       
  31 H31           -0.4782     3.3453    -2.7286 H       
  32 H32            0.5184    -0.3653     0.8914 H       
  33 H33           -1.0206    -0.3813    -0.0028 H       
  34 H34            0.5232    -0.3555    -0.8885 H       
  35 H35           -5.1636     3.3615    -1.2490 H       
  36 H36            1.8359     1.7695    -0.7656 H       
@<TRIPOS>BOND
   1    1   18 1
   2    1   20 1
   3    1    2 1
   4    1   16 1
   5    2    3 1
   6    2    6 1
   7    2   22 1
   8    3    4 1
   9    4   16 1
  10    4    5 1
  11    4   23 1
  12    5   19 1
  13    5   24 1
  14    5   25 1
  15    6    7 2
  16    6    8 1
  17    7   10 1
  18    7   26 1
  19    8    9 1
  20    8   11 1
  21    9   10 2
  22    9   14 1
  23   10   21 1
  24   11   12 2
  25   12   13 1
  26   12   27 1
  27   13   14 2
  28   14   15 1
  29   15   28 1
  30   15   29 1
  31   16   17 1
  32   16   30 1
  33   17   31 1
  34   18   32 1
  35   18   33 1
  36   18   34 1
  37   19   35 1
  38   20   36 1

#	End of record

