#	Name: ASD01917921
#	Creating user name:	WinNT
#	Creation time:	15. 06. 2019 20:10

#	Modifying user name:	WinNT
#	Modification time:	15. 06. 2019 20:10

#	Program:	/corina/corina34_cracker 3.40 0067  02.08.2006

@<TRIPOS>MOLECULE
ASD01917921
  37   40    0    0    0
SMALL
NO_CHARGES


@<TRIPOS>ATOM
   1 N1             4.8204    -0.4107    -2.1412 N.ar    
   2 C2             5.2868     0.2865    -3.1586 C.ar    
   3 C3             5.1744     1.6663    -3.1850 C.ar    
   4 C4             4.5611     2.3155    -2.1228 C.ar    
   5 C5             4.0810     1.5472    -1.0675 C.ar    
   6 C6             4.2318     0.1683    -1.1139 C.ar    
   7 F7             5.6561     2.3718    -4.2316 F       
   8 O8             3.4732     2.1385    -0.0057 O.3     
   9 C9             3.4534     3.4976     0.0434 C.2     
  10 N10            2.2019     5.5098    -0.0225 N.pl3   
  11 C11            2.2703     4.1540    -0.0660 C.2     
  12 C12            4.6529     4.1997     0.2119 C.2     
  13 C13            4.6244     5.5890     0.2616 C.2     
  14 C14            3.3317     6.2614     0.1346 C.2     
  15 C15            5.8643     6.3636     0.4381 C.2     
  16 N16            5.8171     7.7098     0.4839 N.am    
  17 C17            6.9728     8.4385     0.7561 C.ar    
  18 N18            8.1343     7.8108     0.8615 N.ar    
  19 C19            6.8969     9.8171     0.9087 C.ar    
  20 C20            8.0553    10.5299     1.1790 C.ar    
  21 C21            9.2531     9.8312     1.2869 C.ar    
  22 C22            9.2532     8.4615     1.1179 C.ar    
  23 O23            6.9310     5.7886     0.5425 O.2     
  24 N24            1.1388     6.4205    -0.1093 N.2     
  25 C25            1.6529     7.6235    -0.0116 C.2     
  26 N26            2.9682     7.5341     0.1403 N.2     
  27 F27            8.0212    11.8716     1.3335 F       
  28 H28            5.7629    -0.2253    -3.9819 H       
  29 H29            4.4594     3.3907    -2.1157 H       
  30 H30            3.8627    -0.4369    -0.2991 H       
  31 H31            1.3613     3.5843    -0.1910 H       
  32 H32            5.5889     3.6686     0.3025 H       
  33 H33            4.9784     8.1713     0.3273 H       
  34 H34            5.9490    10.3266     0.8178 H       
  35 H35           10.1739    10.3554     1.4963 H       
  36 H36           10.1813     7.9150     1.1965 H       
  37 H37            1.0909     8.5452    -0.0426 H       
@<TRIPOS>BOND
   1    1    2 ar
   2    1    6 ar
   3    2    3 ar
   4    2   28 1
   5    3    4 ar
   6    3    7 1
   7    4    5 ar
   8    4   29 1
   9    5    6 ar
  10    5    8 1
  11    6   30 1
  12    8    9 1
  13    9   12 1
  14    9   11 2
  15   10   11 1
  16   10   24 1
  17   10   14 1
  18   11   31 1
  19   12   13 2
  20   12   32 1
  21   13   14 1
  22   13   15 1
  23   14   26 2
  24   15   16 am
  25   15   23 2
  26   16   17 1
  27   16   33 1
  28   17   19 ar
  29   17   18 ar
  30   18   22 ar
  31   19   20 ar
  32   19   34 1
  33   20   21 ar
  34   20   27 1
  35   21   22 ar
  36   21   35 1
  37   22   36 1
  38   24   25 2
  39   25   26 1
  40   25   37 1

#	End of record

