#	Name: ASD01881200
#	Creating user name:	WinNT
#	Creation time:	15. 06. 2019 19:42

#	Modifying user name:	WinNT
#	Modification time:	15. 06. 2019 19:42

#	Program:	/corina/corina34_cracker 3.40 0067  02.08.2006

@<TRIPOS>MOLECULE
ASD01881200
  49   52    0    0    0
SMALL
NO_CHARGES


@<TRIPOS>ATOM
   1 N1             0.0045     1.3315    -0.1715 N.ar    
   2 C2             0.0079     0.0098    -0.1812 C.ar    
   3 N3             1.1228    -0.6848    -0.0185 N.ar    
   4 C4             2.2847    -0.0766     0.1613 C.ar    
   5 C5             2.3288     1.3062     0.1787 C.ar    
   6 C6             1.1356     2.0115     0.0043 C.ar    
   7 C7             3.6327     2.0341     0.3813 C.3     
   8 O8             4.6665     1.0893     0.6653 O.3     
   9 C9             5.9126     1.5841     0.8752 C.ar    
  10 C10            6.9658     0.7186     1.1567 C.ar    
  11 C11            8.2260     1.2191     1.3685 C.ar    
  12 C12            8.4609     2.5968     1.3036 C.ar    
  13 C13            7.3993     3.4628     1.0204 C.ar    
  14 C14            6.1366     2.9531     0.8034 C.ar    
  15 C15            9.5529     0.5758     1.6862 C.3     
  16 N16           10.5240     1.6708     1.7915 N.am    
  17 C17            9.8893     2.8347     1.5700 C.2     
  18 O18           10.4196     3.9287     1.5868 O.2     
  19 Cl19           7.6724     5.1751     0.9365 Cl      
  20 C20            1.1289     3.4945     0.0143 C.ar    
  21 C21            2.0938     4.2032    -0.6996 C.ar    
  22 C22            2.0825     5.5832    -0.6870 C.ar    
  23 C23            1.1160     6.2630     0.0322 C.ar    
  24 C24            0.1560     5.5649     0.7425 C.ar    
  25 C25            0.1544     4.1849     0.7329 C.ar    
  26 C26           12.7289     1.3536     0.7820 C.3     
  27 C27           11.9506     1.5202     2.0887 C.3     
  28 O28           -1.1605    -0.6513    -0.3620 O.3     
  29 C29           -1.1043    -2.0792    -0.3646 C.3     
  30 H30            3.1882    -0.6534     0.2934 H       
  31 H31            3.8845     2.5872    -0.5235 H       
  32 H32            3.5354     2.7281     1.2162 H       
  33 H33            6.7913    -0.3460     1.2086 H       
  34 H34            5.3170     3.6214     0.5844 H       
  35 H35            9.4914     0.0372     2.6319 H       
  36 H36            9.8409    -0.1047     0.8849 H       
  37 H37            2.8490     3.6734    -1.2611 H       
  38 H38            2.8298     6.1333    -1.2395 H       
  39 H39            1.1112     7.3430     0.0395 H       
  40 H40           -0.5959     6.1009     1.3026 H       
  41 H41           -0.5958     3.6408     1.2876 H       
  42 H42           13.7904     1.2415     1.0032 H       
  43 H43           12.3717     0.4678     0.2568 H       
  44 H44           12.5792     2.2327     0.1553 H       
  45 H45           12.3078     2.4060     2.6139 H       
  46 H46           12.1003     0.6411     2.7154 H       
  47 H47           -2.1054    -2.4820    -0.5182 H       
  48 H48           -0.4500    -2.4156    -1.1688 H       
  49 H49           -0.7145    -2.4292     0.5913 H       
@<TRIPOS>BOND
   1    1    2 ar
   2    1    6 ar
   3    2    3 ar
   4    2   28 1
   5    3    4 ar
   6    4    5 ar
   7    4   30 1
   8    5    6 ar
   9    5    7 1
  10    6   20 1
  11    7    8 1
  12    7   31 1
  13    7   32 1
  14    8    9 1
  15    9   10 ar
  16    9   14 ar
  17   10   11 ar
  18   10   33 1
  19   11   12 ar
  20   11   15 1
  21   12   13 ar
  22   12   17 1
  23   13   14 ar
  24   13   19 1
  25   14   34 1
  26   15   16 1
  27   15   35 1
  28   15   36 1
  29   16   17 am
  30   16   27 1
  31   17   18 2
  32   20   21 ar
  33   20   25 ar
  34   21   22 ar
  35   21   37 1
  36   22   23 ar
  37   22   38 1
  38   23   24 ar
  39   23   39 1
  40   24   25 ar
  41   24   40 1
  42   25   41 1
  43   26   27 1
  44   26   42 1
  45   26   43 1
  46   26   44 1
  47   27   45 1
  48   27   46 1
  49   28   29 1
  50   29   47 1
  51   29   48 1
  52   29   49 1

#	End of record

