#	Name: ASD04882196
#	Creating user name:	WinNT
#	Creation time:	15. 06. 2019 20:54

#	Modifying user name:	WinNT
#	Modification time:	15. 06. 2019 20:54

#	Program:	/corina/corina34_cracker 3.40 0067  02.08.2006

@<TRIPOS>MOLECULE
ASD04882196
  78   83    0    0    0
SMALL
NO_CHARGES


@<TRIPOS>ATOM
   1 C1            -0.1617     1.4752     0.4539 C.2     
   2 C2            -0.1422     0.0094     0.4883 C.2     
   3 N3            -1.1637    -0.6908    -0.0433 N.am    
   4 C4            -1.0913    -2.0879    -0.1181 C.ar    
   5 C5            -2.2495    -2.8570     0.0250 C.ar    
   6 C6            -2.1792    -4.2434    -0.0495 C.ar    
   7 C7            -0.9686    -4.8640    -0.2639 C.ar    
   8 C8             0.1935    -4.1009    -0.4078 C.ar    
   9 C9             0.1247    -2.7066    -0.3391 C.ar    
  10 N10           -3.4755    -2.2336     0.2429 N.3     
  11 C11           -3.4998    -1.5615     1.5495 C.3     
  12 C12           -4.5823    -3.1935     0.1269 C.3     
  13 C13           -5.9130    -2.4561     0.2937 C.3     
  14 N14           -5.9373    -1.7840     1.6003 N.3     
  15 C15           -4.8306    -0.8242     1.7162 C.3     
  16 C16           -7.1670    -1.1588     1.8189 C.ar    
  17 C17           -7.6084    -0.1685     0.9508 C.ar    
  18 C18           -7.9542    -1.5301     2.9018 C.ar    
  19 C19           -9.1693    -0.9099     3.1150 C.ar    
  20 C20           -9.6034     0.0795     2.2516 C.ar    
  21 C21           -8.8250     0.4478     1.1698 C.ar    
  22 C22            1.4902    -4.7661    -0.6375 C.2     
  23 N23            1.5547    -6.1104    -0.7086 N.am    
  24 O24            2.5007    -4.1014    -0.7626 O.2     
  25 O25            0.7966    -0.5749     0.9970 O.2     
  26 C26            0.8031     2.3025     0.9533 C.2     
  27 C27            0.3766     3.6164     0.7041 C.2     
  28 C28           -0.8147     3.5346     0.0715 C.2     
  29 O29           -1.1333     2.2427    -0.0819 O.3     
  30 C30           -7.4825    -2.6088     3.8425 C.3     
  31 C31            2.8423    -6.7709    -0.9367 C.3     
  32 C32            2.9119    -8.0793    -0.1868 C.3     
  33 C33            1.9440    -8.9215    -1.1123 C.3     
  34 C34            2.5113    -8.5595    -2.4573 C.3     
  35 O35            2.9699    -7.1863    -2.3287 O.3     
  36 C36            3.6843    -9.4793    -2.8019 C.3     
  37 O37            4.1356    -9.1990    -4.1285 O.3     
  38 O38            2.0551   -10.1546    -0.4505 O.3     
  39 O39            2.3504    -8.3683     1.0600 O.3     
  40 C40            1.9177    -9.7552     0.9488 C.3     
  41 C41            0.4553    -9.8782     1.3817 C.3     
  42 C42            2.7967   -10.6447     1.8304 C.3     
  43 H43           -1.9490    -0.2275    -0.3742 H       
  44 H44           -3.0758    -4.8351     0.0615 H       
  45 H45           -0.9171    -5.9413    -0.3205 H       
  46 H46            1.0210    -2.1144    -0.4500 H       
  47 H47           -3.3929    -2.3026     2.3417 H       
  48 H48           -2.6786    -0.8470     1.6062 H       
  49 H49           -4.5503    -3.6688    -0.8535 H       
  50 H50           -4.4877    -3.9530     0.9029 H       
  51 H51           -6.0200    -1.7151    -0.4985 H       
  52 H52           -6.7343    -3.1706     0.2370 H       
  53 H53           -4.8626    -0.3489     2.6966 H       
  54 H54           -4.9252    -0.0646     0.9402 H       
  55 H55           -7.0008     0.1197     0.1056 H       
  56 H56           -9.7817    -1.1981     3.9566 H       
  57 H57          -10.5546     0.5625     2.4202 H       
  58 H58           -9.1668     1.2208     0.4976 H       
  59 H59            0.7486    -6.6406    -0.6088 H       
  60 H60            1.7171     2.0038     1.4451 H       
  61 H61            0.9016     4.5224     0.9687 H       
  62 H62           -1.4100     4.3728    -0.2594 H       
  63 H63           -6.9045    -2.1594     4.6500 H       
  64 H64           -8.3444    -3.1300     4.2591 H       
  65 H65           -6.8574    -3.3172     3.2989 H       
  66 H66            3.6659    -6.1172    -0.6493 H       
  67 H67            3.9222    -8.4854    -0.2373 H       
  68 H68            0.9242    -8.5470    -1.0237 H       
  69 H69            1.7390    -8.6289    -3.2233 H       
  70 H70            4.4986    -9.3091    -2.0976 H       
  71 H71            3.3615   -10.5185    -2.7400 H       
  72 H72            4.8796    -9.7464    -4.4148 H       
  73 H73            0.1285   -10.9118     1.2681 H       
  74 H74            0.3590    -9.5792     2.4254 H       
  75 H75           -0.1633    -9.2311     0.7598 H       
  76 H76            3.8384   -10.5411     1.5268 H       
  77 H77            2.6901   -10.3424     2.8722 H       
  78 H78            2.4877   -11.6842     1.7203 H       
@<TRIPOS>BOND
   1    1    2 1
   2    1   26 2
   3    1   29 1
   4    2    3 am
   5    2   25 2
   6    3    4 1
   7    3   43 1
   8    4    5 ar
   9    4    9 ar
  10    5    6 ar
  11    5   10 1
  12    6    7 ar
  13    6   44 1
  14    7    8 ar
  15    7   45 1
  16    8    9 ar
  17    8   22 1
  18    9   46 1
  19   10   11 1
  20   10   12 1
  21   11   15 1
  22   11   47 1
  23   11   48 1
  24   12   13 1
  25   12   49 1
  26   12   50 1
  27   13   14 1
  28   13   51 1
  29   13   52 1
  30   14   15 1
  31   14   16 1
  32   15   53 1
  33   15   54 1
  34   16   17 ar
  35   16   18 ar
  36   17   21 ar
  37   17   55 1
  38   18   19 ar
  39   18   30 1
  40   19   20 ar
  41   19   56 1
  42   20   21 ar
  43   20   57 1
  44   21   58 1
  45   22   23 am
  46   22   24 2
  47   23   31 1
  48   23   59 1
  49   26   27 1
  50   26   60 1
  51   27   28 2
  52   27   61 1
  53   28   29 1
  54   28   62 1
  55   30   63 1
  56   30   64 1
  57   30   65 1
  58   31   32 1
  59   31   35 1
  60   31   66 1
  61   32   33 1
  62   32   39 1
  63   32   67 1
  64   33   34 1
  65   33   38 1
  66   33   68 1
  67   34   35 1
  68   34   36 1
  69   34   69 1
  70   36   37 1
  71   36   70 1
  72   36   71 1
  73   37   72 1
  74   38   40 1
  75   39   40 1
  76   40   41 1
  77   40   42 1
  78   41   73 1
  79   41   74 1
  80   41   75 1
  81   42   76 1
  82   42   77 1
  83   42   78 1

#	End of record

