#	Name: ASD02039477
#	Creating user name:	WinNT
#	Creation time:	15. 06. 2019 20:18

#	Modifying user name:	WinNT
#	Modification time:	15. 06. 2019 20:18

#	Program:	/corina/corina34_cracker 3.40 0067  02.08.2006

@<TRIPOS>MOLECULE
ASD02039477
  52   55    0    0    0
SMALL
NO_CHARGES


@<TRIPOS>ATOM
   1 C1             0.2775     1.7530     0.1371 C.ar    
   2 C2             0.7333     0.4481     0.0832 C.ar    
   3 C3             1.2619     2.8939     0.1256 C.3     
   4 N4             1.5922     3.2399    -1.2592 N.am    
   5 C5             0.9409     4.2457    -1.8761 C.2     
   6 C6            -0.1641     4.9379    -1.1904 C.2     
   7 C7            -0.9671     5.9024    -1.7254 C.2     
   8 N8            -0.5727     4.7279     0.0871 N.2     
   9 C9            -1.5735     5.5196     0.3444 C.2     
  10 N10           -1.8446     6.2632    -0.7597 N.pl3   
  11 O11            1.2655     4.5820    -2.9990 O.2     
  12 C12           -2.8972     7.2746    -0.8830 C.3     
  13 C13            2.6303     2.4925    -1.9733 C.3     
  14 C14            2.1646     1.9320    -3.3275 C.3     
  15 C15            3.5464     2.3248    -3.8763 C.3     
  16 C16            3.5986     3.3869    -2.7654 C.3     
  17 C17           -0.1634    -0.6047     0.0934 C.ar    
  18 C18           -1.5220    -0.3576     0.1572 C.ar    
  19 C19           -1.9866     0.9578     0.2119 C.ar    
  20 C20           -1.0768     2.0130     0.1959 C.ar    
  21 F21           -2.3979    -1.3862     0.1663 F       
  22 C22           -3.4425     1.2309     0.2805 C.ar    
  23 N23           -4.2020     0.5370     1.1179 N.ar    
  24 C24           -5.4991     0.7470     1.2110 C.ar    
  25 C25           -6.1211     1.7102     0.4292 C.ar    
  26 C26           -5.3581     2.4599    -0.4625 C.ar    
  27 C27           -3.9983     2.2182    -0.5315 C.ar    
  28 O28           -7.4600     1.9191     0.5322 O.3     
  29 C29           -8.1727     1.1093     1.4694 C.3     
  30 F30           -7.6594     1.3207     2.7535 F       
  31 F31           -9.5285     1.4534     1.4467 F       
  32 F32           -8.0280    -0.2390     1.1254 F       
  33 H33            1.7939     0.2506     0.0325 H       
  34 H34            0.8213     3.7591     0.6210 H       
  35 H35            2.1689     2.5966     0.6520 H       
  36 H36           -0.9128     6.3019    -2.7273 H       
  37 H37           -2.1047     5.5742     1.2832 H       
  38 H38           -2.5029     8.2471    -0.5880 H       
  39 H39           -3.2386     7.3195    -1.9172 H       
  40 H40           -3.7331     7.0099    -0.2355 H       
  41 H41            3.1299     1.7557    -1.3443 H       
  42 H42            1.9884     0.8564    -3.3175 H       
  43 H43            1.3425     2.4925    -3.7726 H       
  44 H44            4.2977     1.5426    -3.7682 H       
  45 H45            3.5135     2.7455    -4.8813 H       
  46 H46            3.1685     4.3451    -3.0568 H       
  47 H47            4.5800     3.4858    -2.3016 H       
  48 H48            0.1983    -1.6215     0.0510 H       
  49 H49           -1.4304     3.0326     0.2383 H       
  50 H50           -6.0857     0.1623     1.9041 H       
  51 H51           -5.8170     3.2156    -1.0826 H       
  52 H52           -3.3764     2.7814    -1.2116 H       
@<TRIPOS>BOND
   1    1    2 ar
   2    1    3 1
   3    1   20 ar
   4    2   17 ar
   5    2   33 1
   6    3    4 1
   7    3   34 1
   8    3   35 1
   9    4    5 am
  10    4   13 1
  11    5    6 1
  12    5   11 2
  13    6    7 2
  14    6    8 1
  15    7   10 1
  16    7   36 1
  17    8    9 2
  18    9   10 1
  19    9   37 1
  20   10   12 1
  21   12   38 1
  22   12   39 1
  23   12   40 1
  24   13   14 1
  25   13   16 1
  26   13   41 1
  27   14   15 1
  28   14   42 1
  29   14   43 1
  30   15   16 1
  31   15   44 1
  32   15   45 1
  33   16   46 1
  34   16   47 1
  35   17   18 ar
  36   17   48 1
  37   18   19 ar
  38   18   21 1
  39   19   20 ar
  40   19   22 1
  41   20   49 1
  42   22   23 ar
  43   22   27 ar
  44   23   24 ar
  45   24   25 ar
  46   24   50 1
  47   25   26 ar
  48   25   28 1
  49   26   27 ar
  50   26   51 1
  51   27   52 1
  52   28   29 1
  53   29   30 1
  54   29   31 1
  55   29   32 1

#	End of record

