#	Name: ASD00842293
#	Creating user name:	WinNT
#	Creation time:	15. 06. 2019 18:44

#	Modifying user name:	WinNT
#	Modification time:	15. 06. 2019 18:44

#	Program:	/corina/corina34_cracker 3.40 0067  02.08.2006

@<TRIPOS>MOLECULE
ASD00842293
  90   95    0    0    0
SMALL
NO_CHARGES


@<TRIPOS>ATOM
   1 F1             6.1295    -1.8128    -1.9269 F       
   2 C2             1.0707     1.5495    -0.5504 C.ar    
   3 C3             1.3575     0.2050    -0.7352 C.ar    
   4 C4             1.2623    -0.6756     0.3329 C.ar    
   5 C5             0.8822    -0.2116     1.5771 C.ar    
   6 C6             0.5964     1.1292     1.7587 C.ar    
   7 C7             0.6910     2.0086     0.6963 C.ar    
   8 C8             1.5727    -2.1370     0.1355 C.3     
   9 C9             1.2732    -2.9179     1.3973 C.2     
  10 C10            0.7760    -2.6982    -1.0440 C.3     
  11 C11           -0.6912    -2.4248    -0.8347 C.2     
  12 N12           -1.5983    -2.9127    -1.7039 N.am    
  13 O13           -1.0556    -1.7657     0.1160 O.2     
  14 C14           -3.0227    -2.5674    -1.5817 C.3     
  15 C15           -3.5208    -2.0675    -2.9419 C.3     
  16 N16           -3.2105    -3.0682    -3.9715 N.3     
  17 C17           -1.7603    -3.2560    -4.1121 C.3     
  18 C18           -1.1892    -3.7997    -2.8035 C.3     
  19 N19           -3.8155    -2.7111    -5.2445 N.3     
  20 C20           -3.5050    -3.7123    -6.2744 C.3     
  21 C21           -4.2234    -3.3427    -7.5743 C.3     
  22 N22           -3.7985    -2.0024    -8.0018 N.3     
  23 C23           -4.1091    -1.0013    -6.9718 C.3     
  24 C24           -3.3907    -1.3708    -5.6719 C.3     
  25 C25           -4.4098    -1.6416    -9.2879 C.3     
  26 O26            0.1923    -3.0289     1.9362 O.2     
  27 N27            2.4296    -3.4654     1.8078 N.am    
  28 C28            3.0551    -2.3391    -0.0792 C.ar    
  29 C29            3.4948    -3.1451     0.9634 C.ar    
  30 C30            3.9300    -1.8929    -1.0442 C.ar    
  31 C31            5.2678    -2.2480    -0.9819 C.ar    
  32 C32            5.7188    -3.0521     0.0539 C.ar    
  33 C33            4.8406    -3.4996     1.0221 C.ar    
  34 F34            7.0229    -3.3996     0.1166 F       
  35 C35            2.3006    -6.0784     2.6620 C.ar    
  36 C36            1.0571    -6.4645     2.1837 C.ar    
  37 C37            3.3255    -7.0014     2.7425 C.ar    
  38 C38            3.1127    -8.3087     2.3464 C.ar    
  39 C39            1.8740    -8.6961     1.8692 C.ar    
  40 C40            0.8460    -7.7773     1.7872 C.ar    
  41 H41            1.7102    -9.7179     1.5603 H       
  42 O42            0.0473    -5.5585     2.1040 O.3     
  43 C43           -1.2060    -6.0266     1.6018 C.3     
  44 C44           -2.2117    -4.8737     1.5859 C.3     
  45 O45            1.7308    -0.2491    -1.9605 O.3     
  46 C46            2.2471     0.0302    -4.3048 C.3     
  47 C47            1.6986     0.6893    -3.0377 C.3     
  48 S48            2.5749    -4.4106     3.1597 S.o2    
  49 O49            3.9357    -4.3302     3.5611 O.2     
  50 O50            1.4917    -4.0625     4.0110 O.2     
  51 H51            1.1485     2.2376    -1.3791 H       
  52 H52            0.8079    -0.8966     2.4088 H       
  53 H53            0.2987     1.4899     2.7322 H       
  54 H54            0.4672     3.0552     0.8406 H       
  55 H55            1.1067    -2.2202    -1.9661 H       
  56 H56            0.9389    -3.7737    -1.1136 H       
  57 H57           -3.5895    -3.4503    -1.2861 H       
  58 H58           -3.1465    -1.7826    -0.8354 H       
  59 H59           -4.5988    -1.9114    -2.8996 H       
  60 H60           -3.0263    -1.1276    -3.1874 H       
  61 H61           -1.5614    -3.9620    -4.9184 H       
  62 H62           -1.2903    -2.2996    -4.3412 H       
  63 H63           -0.1013    -3.8323    -2.8643 H       
  64 H64           -1.5788    -4.8015    -2.6222 H       
  65 H65           -2.4290    -3.7346    -6.4473 H       
  66 H66           -3.8403    -4.6941    -5.9401 H       
  67 H67           -3.9714    -4.0681    -8.3480 H       
  68 H68           -5.3007    -3.3471    -7.4084 H       
  69 H69           -3.7737    -0.0195    -7.3062 H       
  70 H70           -5.1850    -0.9790    -6.7990 H       
  71 H71           -3.6426    -0.6455    -4.8983 H       
  72 H72           -2.3134    -1.3665    -5.8379 H       
  73 H73           -5.4953    -1.6493    -9.1891 H       
  74 H74           -4.0786    -0.6453    -9.5808 H       
  75 H75           -4.1091    -2.3626   -10.0481 H       
  76 H76            3.5737    -1.2671    -1.8492 H       
  77 H77            5.1984    -4.1253     1.8264 H       
  78 H78            4.2939    -6.7014     3.1149 H       
  79 H79            3.9154    -9.0286     2.4094 H       
  80 H80           -0.1215    -8.0804     1.4150 H       
  81 H81           -1.0726    -6.4064     0.5889 H       
  82 H82           -1.5790    -6.8252     2.2431 H       
  83 H83           -2.3451    -4.4939     2.5989 H       
  84 H84           -1.8388    -4.0751     0.9446 H       
  85 H85           -3.1677    -5.2308     1.2029 H       
  86 H86            2.3044     0.7699    -5.1034 H       
  87 H87            3.2422    -0.3676    -4.1059 H       
  88 H88            1.5853    -0.7811    -4.6079 H       
  89 H89            0.6710     1.0093    -3.2102 H       
  90 H90            2.3109     1.5547    -2.7840 H       
@<TRIPOS>BOND
   1    1   31 1
   2    2    3 ar
   3    2    7 ar
   4    2   51 1
   5    3    4 ar
   6    3   45 1
   7    4    5 ar
   8    4    8 1
   9    5    6 ar
  10    5   52 1
  11    6    7 ar
  12    6   53 1
  13    7   54 1
  14    8    9 1
  15    8   10 1
  16    8   28 1
  17    9   26 2
  18    9   27 am
  19   10   11 1
  20   10   55 1
  21   10   56 1
  22   11   12 am
  23   11   13 2
  24   12   14 1
  25   12   18 1
  26   14   15 1
  27   14   57 1
  28   14   58 1
  29   15   16 1
  30   15   59 1
  31   15   60 1
  32   16   17 1
  33   16   19 1
  34   17   18 1
  35   17   61 1
  36   17   62 1
  37   18   63 1
  38   18   64 1
  39   19   20 1
  40   19   24 1
  41   20   21 1
  42   20   65 1
  43   20   66 1
  44   21   22 1
  45   21   67 1
  46   21   68 1
  47   22   23 1
  48   22   25 1
  49   23   24 1
  50   23   69 1
  51   23   70 1
  52   24   71 1
  53   24   72 1
  54   25   73 1
  55   25   74 1
  56   25   75 1
  57   27   48 am
  58   27   29 1
  59   28   29 ar
  60   28   30 ar
  61   29   33 ar
  62   30   31 ar
  63   30   76 1
  64   31   32 ar
  65   32   33 ar
  66   32   34 1
  67   33   77 1
  68   35   36 ar
  69   35   37 ar
  70   35   48 1
  71   36   42 1
  72   36   40 ar
  73   37   38 ar
  74   37   78 1
  75   38   39 ar
  76   38   79 1
  77   39   40 ar
  78   39   41 1
  79   40   80 1
  80   42   43 1
  81   43   44 1
  82   43   81 1
  83   43   82 1
  84   44   83 1
  85   44   84 1
  86   44   85 1
  87   45   47 1
  88   46   47 1
  89   46   86 1
  90   46   87 1
  91   46   88 1
  92   47   89 1
  93   47   90 1
  94   48   49 2
  95   48   50 2

#	End of record

