#	Name: ASD04560165
#	Creating user name:	WinNT
#	Creation time:	15. 06. 2019 20:49

#	Modifying user name:	WinNT
#	Modification time:	15. 06. 2019 20:49

#	Program:	/corina/corina34_cracker 3.40 0067  02.08.2006

@<TRIPOS>MOLECULE
ASD04560165
  45   47    0    0    0
SMALL
NO_CHARGES


@<TRIPOS>ATOM
   1 C1            -0.1536     1.5562     0.3015 C.ar    
   2 C2            -0.1703     0.1858     0.3298 C.ar    
   3 C3             1.0174    -0.5296     0.1951 C.ar    
   4 C4             2.2251     0.1449     0.0312 C.ar    
   5 C5             2.2481     1.5153     0.0021 C.ar    
   6 C6             1.0573     2.2361     0.1371 C.ar    
   7 C7             1.0786     3.7102     0.1063 C.2     
   8 O8             2.1324     4.3002    -0.0367 O.2     
   9 N9            -0.0697     4.4036     0.2365 N.am    
  10 C10           -0.0379     5.8010     0.3231 C.ar    
  11 C11           -1.0590     6.5553    -0.2396 C.ar    
  12 C12            1.0426     7.8106     1.0615 C.ar    
  13 C13            1.0119     6.4327     0.9766 C.ar    
  14 S14            0.9920    -2.2910     0.2325 S.3     
  15 C15           -1.0270     7.9331    -0.1538 C.ar    
  16 C16            0.0253     8.5638     0.4938 C.ar    
  17 C17            2.7398    -2.7289     0.0223 C.3     
  18 C18            2.8867    -4.2286     0.0331 C.ar    
  19 C19            2.7087    -4.9561    -1.1423 C.ar    
  20 C20            3.2034    -4.8837     1.2057 C.ar    
  21 C21            2.8466    -6.3432    -1.1251 C.ar    
  22 C22            3.1582    -6.9883     0.0538 C.ar    
  23 C23            3.3390    -6.2605     1.2169 C.ar    
  24 B24            2.3537    -4.2161    -2.4806 Du      
  25 O25            2.6731    -4.8136    -3.7286 O.3     
  26 O26            1.7131    -2.9493    -2.4432 O.3     
  27 O27            0.0564     9.9205     0.5775 O.3     
  28 H28           -1.0753     2.1102     0.4015 H       
  29 H29           -1.1052    -0.3398     0.4570 H       
  30 H30            3.1444    -0.4123    -0.0726 H       
  31 H31            3.1848     2.0377    -0.1245 H       
  32 H32           -0.9182     3.9348     0.2702 H       
  33 H33           -1.8779     6.0644    -0.7444 H       
  34 H34            1.8589     8.3021     1.5700 H       
  35 H35            1.8040     5.8465     1.4186 H       
  36 H36           -1.8211     8.5199    -0.5914 H       
  37 H37            3.1012    -2.3352    -0.9277 H       
  38 H38            3.3222    -2.3008     0.8382 H       
  39 H39            3.3459    -4.3206     2.1162 H       
  40 H40            2.7094    -6.9118    -2.0331 H       
  41 H41            3.2653    -8.0629     0.0682 H       
  42 H42            3.5829    -6.7696     2.1377 H       
  43 H43            2.4161    -4.2837    -4.4956 H       
  44 H44            1.5351    -2.5726    -3.3159 H       
  45 H45           -0.3811    10.2763     1.3630 H       
@<TRIPOS>BOND
   1    1    2 ar
   2    1    6 ar
   3    1   28 1
   4    2    3 ar
   5    2   29 1
   6    3    4 ar
   7    3   14 1
   8    4    5 ar
   9    4   30 1
  10    5    6 ar
  11    5   31 1
  12    6    7 1
  13    7    8 2
  14    7    9 am
  15    9   10 1
  16    9   32 1
  17   10   11 ar
  18   10   13 ar
  19   11   15 ar
  20   11   33 1
  21   12   13 ar
  22   12   16 ar
  23   12   34 1
  24   13   35 1
  25   14   17 1
  26   15   16 ar
  27   15   36 1
  28   16   27 1
  29   17   18 1
  30   17   37 1
  31   17   38 1
  32   18   19 ar
  33   18   20 ar
  34   19   24 1
  35   19   21 ar
  36   20   23 ar
  37   20   39 1
  38   21   22 ar
  39   21   40 1
  40   22   23 ar
  41   22   41 1
  42   23   42 1
  43   24   25 1
  44   24   26 1
  45   25   43 1
  46   26   44 1
  47   27   45 1

#	End of record

