#	Name: ASD01230725
#	Creating user name:	WinNT
#	Creation time:	15. 06. 2019 19:14

#	Modifying user name:	WinNT
#	Modification time:	15. 06. 2019 19:14

#	Program:	/corina/corina34_cracker 3.40 0067  02.08.2006

@<TRIPOS>MOLECULE
ASD01230725
  39   42    0    0    0
SMALL
NO_CHARGES


@<TRIPOS>ATOM
   1 C1            -0.0157     1.3101     0.0092 C.2     
   2 N2            -0.0647     0.1017    -0.5053 N.2     
   3 C3            -1.1986    -0.5954    -0.5030 C.2     
   4 C4            -2.3399    -0.0953     0.0081 C.2     
   5 N5            -2.3896     1.1654     0.5544 N.pl3   
   6 C6            -1.2391     1.9009     0.6033 C.2     
   7 C7            -3.6868     1.6301     1.0438 C.3     
   8 C8            -3.5082     2.5071     2.2873 C.3     
   9 S9            -2.4003     3.8762     1.8260 S.o2    
  10 N10           -1.1202     3.0899     1.1314 N.am    
  11 C11            1.2511     2.0723     0.0012 C.ar    
  12 C12            2.4717     1.3994     0.0914 C.ar    
  13 O13           -2.9646     4.6495     0.7760 O.2     
  14 O14           -1.8511     4.4918     2.9830 O.2     
  15 C15            1.2279     3.4650    -0.1023 C.ar    
  16 C16            2.4074     4.1752    -0.1103 C.ar    
  17 C17            3.6268     3.5050    -0.0155 C.ar    
  18 C18            3.6526     2.1113     0.0833 C.ar    
  19 C19            4.8961     4.2709    -0.0247 C.ar    
  20 C20            5.8603     4.0391     0.9552 C.ar    
  21 C21            5.1325     5.2217    -1.0165 C.ar    
  22 C22            6.3158     5.9316    -1.0199 C.ar    
  23 C23            7.2665     5.7014    -0.0418 C.ar    
  24 C24            7.0399     4.7551     0.9416 C.ar    
  25 F25            4.8338     1.4621     0.1752 F       
  26 H26           -1.2036    -1.5902    -0.9233 H       
  27 H27           -3.2360    -0.6978    -0.0120 H       
  28 H28           -4.1794     2.2093     0.2628 H       
  29 H29           -4.3054     0.7690     1.2967 H       
  30 H30           -4.4733     2.9017     2.6049 H       
  31 H31           -3.0616     1.9233     3.0922 H       
  32 H32            2.4906     0.3223     0.1677 H       
  33 H33            0.2842     3.9851    -0.1765 H       
  34 H34            2.3884     5.2521    -0.1904 H       
  35 H35            5.6843     3.3009     1.7236 H       
  36 H36            4.3911     5.4020    -1.7808 H       
  37 H37            6.5002     6.6682    -1.7880 H       
  38 H38            8.1914     6.2591    -0.0487 H       
  39 H39            7.7856     4.5799     1.7029 H       
@<TRIPOS>BOND
   1    1    2 2
   2    1   11 1
   3    1    6 1
   4    2    3 1
   5    3    4 2
   6    3   26 1
   7    4    5 1
   8    4   27 1
   9    5    6 1
  10    5    7 1
  11    6   10 2
  12    7    8 1
  13    7   28 1
  14    7   29 1
  15    8    9 1
  16    8   30 1
  17    8   31 1
  18    9   10 am
  19    9   13 2
  20    9   14 2
  21   11   12 ar
  22   11   15 ar
  23   12   18 ar
  24   12   32 1
  25   15   16 ar
  26   15   33 1
  27   16   17 ar
  28   16   34 1
  29   17   18 ar
  30   17   19 1
  31   18   25 1
  32   19   20 ar
  33   19   21 ar
  34   20   24 ar
  35   20   35 1
  36   21   22 ar
  37   21   36 1
  38   22   23 ar
  39   22   37 1
  40   23   24 ar
  41   23   38 1
  42   24   39 1

#	End of record

