#	Name: ASD01883288
#	Creating user name:	WinNT
#	Creation time:	15. 06. 2019 19:46

#	Modifying user name:	WinNT
#	Modification time:	15. 06. 2019 19:46

#	Program:	/corina/corina34_cracker 3.40 0067  02.08.2006

@<TRIPOS>MOLECULE
ASD01883288
  44   45    0    0    0
SMALL
NO_CHARGES


@<TRIPOS>ATOM
   1 N1            -0.0162     1.3417     0.0094 N.am    
   2 C2             0.0021    -0.0041     0.0020 C.2     
   3 C3            -1.2174    -0.7277     0.0098 C.2     
   4 C4            -2.4258    -0.0123     0.0252 C.2     
   5 C5            -2.3788     1.3946     0.0323 C.2     
   6 C6            -1.1846     2.0315     0.0299 C.2     
   7 O7             1.0655    -0.6001    -0.0117 O.2     
   8 C8            -1.2167    -2.1597     0.0016 C.1     
   9 N9            -1.2162    -3.2957    -0.0049 N.1     
  10 C10            1.2511     2.0767     0.0013 C.3     
  11 C11            1.6785     2.3403    -1.4440 C.3     
  12 C12            3.0020     3.1079    -1.4525 C.3     
  13 C13            3.4925     3.2627    -2.8934 C.3     
  14 C14            2.7932     4.4914    -0.8334 C.3     
  15 C15           -3.7236    -0.7236     0.0332 C.ar    
  16 C16           -4.5711    -0.6172     1.1379 C.ar    
  17 C17           -5.7786    -1.2790     1.1457 C.ar    
  18 C18           -6.1560    -2.0565     0.0482 C.ar    
  19 C19           -5.3081    -2.1624    -1.0570 C.ar    
  20 C20           -4.1028    -1.4964    -1.0662 C.ar    
  21 C21           -7.4515    -2.7672     0.0565 C.2     
  22 O22           -7.8153    -3.5170    -1.0020 O.3     
  23 C23           -9.1013    -4.1866    -0.9247 C.3     
  24 O24           -8.1885    -2.6754     1.0177 O.2     
  25 H25           -3.2954     1.9657     0.0437 H       
  26 H26           -1.1611     3.1113     0.0358 H       
  27 H27            1.1238     3.0261     0.5214 H       
  28 H28            2.0167     1.4864     0.5046 H       
  29 H29            1.8057     1.3909    -1.9642 H       
  30 H30            0.9128     2.9307    -1.9474 H       
  31 H31            3.7442     2.5588    -0.8731 H       
  32 H32            2.7503     3.8118    -3.4729 H       
  33 H33            4.4354     3.8096    -2.8995 H       
  34 H34            3.6413     2.2771    -3.3345 H       
  35 H35            2.0510     5.0405    -1.4129 H       
  36 H36            2.4437     4.3811     0.1931 H       
  37 H37            3.7360     5.0382    -0.8395 H       
  38 H38           -4.2793    -0.0161     1.9864 H       
  39 H39           -6.4337    -1.1973     2.0004 H       
  40 H40           -5.5994    -2.7637    -1.9055 H       
  41 H41           -3.4473    -1.5782    -1.9206 H       
  42 H42           -9.1077    -4.8634    -0.0703 H       
  43 H43           -9.8908    -3.4445    -0.8062 H       
  44 H44           -9.2708    -4.7546    -1.8394 H       
@<TRIPOS>BOND
   1    1    2 am
   2    1   10 1
   3    1    6 1
   4    2    3 1
   5    2    7 2
   6    3    4 2
   7    3    8 1
   8    4    5 1
   9    4   15 1
  10    5    6 2
  11    5   25 1
  12    6   26 1
  13    8    9 3
  14   10   11 1
  15   10   27 1
  16   10   28 1
  17   11   12 1
  18   11   29 1
  19   11   30 1
  20   12   13 1
  21   12   14 1
  22   12   31 1
  23   13   32 1
  24   13   33 1
  25   13   34 1
  26   14   35 1
  27   14   36 1
  28   14   37 1
  29   15   16 ar
  30   15   20 ar
  31   16   17 ar
  32   16   38 1
  33   17   18 ar
  34   17   39 1
  35   18   19 ar
  36   18   21 1
  37   19   20 ar
  38   19   40 1
  39   20   41 1
  40   21   22 1
  41   21   24 2
  42   22   23 1
  43   23   42 1
  44   23   43 1
  45   23   44 1

#	End of record

