#	Name: ASD09740063
#	Creating user name:	WinNT
#	Creation time:	15. 06. 2019 21:22

#	Modifying user name:	WinNT
#	Modification time:	15. 06. 2019 21:22

#	Program:	/corina/corina34_cracker 3.40 0067  02.08.2006

@<TRIPOS>MOLECULE
ASD09740063
  34   36    0    0    0
SMALL
NO_CHARGES


@<TRIPOS>ATOM
   1 N1            -0.0144     1.2085     0.0087 N.2     
   2 O2             0.0021    -0.0041     0.0020 O.3     
   3 C3             1.2055     1.6807    -0.0004 C.2     
   4 N4             2.0463     0.6259    -0.0141 N.2     
   5 C5             1.2706    -0.4439    -0.0125 C.2     
   6 C6             1.7131    -1.8506    -0.0242 C.ar    
   7 C7             1.5933     3.1143     0.0031 C.ar    
   8 C8             3.0765    -2.1569    -0.0389 C.ar    
   9 C9             0.7677    -2.8859    -0.0149 C.ar    
  10 C10            1.1912    -4.2037    -0.0256 C.ar    
  11 C11            2.5467    -4.4971    -0.0454 C.ar    
  12 C12            3.4858    -3.4712    -0.0494 C.ar    
  13 C13            0.6237     4.1198     0.0178 C.ar    
  14 C14            1.0277     5.4398     0.0211 C.ar    
  15 N15            2.3081     5.7558     0.0106 N.ar    
  16 C16            3.2544     4.8374    -0.0034 C.ar    
  17 C17            2.9377     3.4937    -0.0022 C.ar    
  18 O18            2.9584    -5.7909    -0.0559 O.3     
  19 C19            4.3683    -6.0228    -0.0763 C.3     
  20 C20            4.6373    -7.5290    -0.0855 C.3     
  21 O21           -0.5583    -2.5969     0.0050 O.3     
  22 H22            3.8086    -1.3629    -0.0424 H       
  23 H23            0.4659    -5.0039    -0.0181 H       
  24 H24            4.5398    -3.7065    -0.0649 H       
  25 H25           -0.4265     3.8681     0.0261 H       
  26 H26            0.2853     6.2242     0.0321 H       
  27 H27            4.2910     5.1405    -0.0116 H       
  28 H28            3.7178     2.7469    -0.0134 H       
  29 H29            4.7979    -5.5715    -0.9707 H       
  30 H30            4.8226    -5.5780     0.8091 H       
  31 H31            4.1831    -7.9738    -0.9709 H       
  32 H32            5.7128    -7.7059    -0.1011 H       
  33 H33            4.2078    -7.9803     0.8089 H       
  34 H34           -0.9551    -2.5097    -0.8726 H       
@<TRIPOS>BOND
   1    1    2 1
   2    1    3 2
   3    2    5 1
   4    3    4 1
   5    3    7 1
   6    4    5 2
   7    5    6 1
   8    6    8 ar
   9    6    9 ar
  10    7   13 ar
  11    7   17 ar
  12    8   12 ar
  13    8   22 1
  14    9   10 ar
  15    9   21 1
  16   10   11 ar
  17   10   23 1
  18   11   12 ar
  19   11   18 1
  20   12   24 1
  21   13   14 ar
  22   13   25 1
  23   14   15 ar
  24   14   26 1
  25   15   16 ar
  26   16   17 ar
  27   16   27 1
  28   17   28 1
  29   18   19 1
  30   19   20 1
  31   19   29 1
  32   19   30 1
  33   20   31 1
  34   20   32 1
  35   20   33 1
  36   21   34 1

#	End of record

