#	Name: ASD01940549
#	Creating user name:	WinNT
#	Creation time:	15. 06. 2019 20:12

#	Modifying user name:	WinNT
#	Modification time:	15. 06. 2019 20:12

#	Program:	/corina/corina34_cracker 3.40 0067  02.08.2006

@<TRIPOS>MOLECULE
ASD01940549
  67   71    0    0    0
SMALL
NO_CHARGES


@<TRIPOS>ATOM
   1 C1             0.0879     1.4736    -0.5042 C.ar    
   2 C2             0.4280     0.6401     0.5509 C.ar    
   3 C3             1.6509    -0.0174     0.5458 C.ar    
   4 C4             2.5296     0.1615    -0.5159 C.ar    
   5 C5             2.1873     0.9930    -1.5649 C.ar    
   6 C6             0.9710     1.6482    -1.5626 C.ar    
   7 N7            -1.1470     2.1342    -0.5056 N.am    
   8 C8            -1.1959     3.4793    -0.1837 C.2     
   9 C9            -2.4445     4.1457    -0.1860 C.2     
  10 C10           -3.6508     3.3646    -0.5354 C.2     
  11 N11           -3.4800     2.0066    -0.8439 N.am    
  12 C12           -2.2577     1.4503    -0.8245 C.2     
  13 C13           -0.0576     4.1936     0.1405 C.2     
  14 C14           -0.1697     5.5499     0.4562 C.2     
  15 N15           -1.3648     6.1666     0.4494 N.am    
  16 C16           -2.5080     5.4901     0.1337 C.2     
  17 N17           -3.7170     6.1425     0.1328 N.pl3   
  18 C18           -1.4415     7.5900     0.7872 C.3     
  19 O19            0.8331     6.1853     0.7433 O.2     
  20 C20            1.2888     3.5168     0.1536 C.3     
  21 C21           -4.8602     3.9319    -0.5562 C.2     
  22 C22           -4.5925     1.2260    -1.1804 C.ar    
  23 N23            1.9977    -0.8574     1.6066 N.am    
  24 C24            1.6033    -0.5578     2.8601 C.2     
  25 C25            1.8714    -1.5109     3.9731 C.2     
  26 O26            1.0296     0.4888     3.0821 O.2     
  27 C27           -4.4980     6.1702     1.2938 C.ar    
  28 C28           -4.0089     5.6276     2.4745 C.ar    
  29 C29           -4.7817     5.6568     3.6191 C.ar    
  30 C30           -6.0423     6.2257     3.5910 C.ar    
  31 C31           -6.5342     6.7672     2.4169 C.ar    
  32 C32           -5.7636     6.7465     1.2688 C.ar    
  33 F33           -6.2415     7.2802     0.1234 F       
  34 O34           -2.1527     0.2717    -1.1034 O.2     
  35 I35           -7.2094     6.2668     5.3303 I       
  36 C36            1.4305    -1.1760     5.3747 C.3     
  37 O37            2.4422    -2.5522     3.7522 O.2     
  38 C38           -5.2997     1.4884    -2.3464 C.ar    
  39 C39           -6.3967     0.7166    -2.6755 C.ar    
  40 C40           -6.7914    -0.3163    -1.8451 C.ar    
  41 C41           -6.0897    -0.5798    -0.6830 C.ar    
  42 C42           -4.9878     0.1841    -0.3517 C.ar    
  43 H43           -0.2566     0.5032     1.3749 H       
  44 H44            3.4810    -0.3495    -0.5208 H       
  45 H45            2.8721     1.1310    -2.3886 H       
  46 H46            0.7063     2.2968    -2.3845 H       
  47 H47           -4.0294     6.5838    -0.6725 H       
  48 H48           -0.4578     7.9436     1.0963 H       
  49 H49           -1.7724     8.1532    -0.0854 H       
  50 H50           -2.1513     7.7323     1.6021 H       
  51 H51            1.6972     3.5006    -0.8569 H       
  52 H52            1.9647     4.0652     0.8099 H       
  53 H53            1.1784     2.4953     0.5173 H       
  54 H54           -4.9805     4.9585    -0.2433 H       
  55 H55           -5.7175     3.3638    -0.8860 H       
  56 H56            2.5223    -1.6563     1.4411 H       
  57 H57           -3.0251     5.1828     2.4979 H       
  58 H58           -4.4012     5.2344     4.5374 H       
  59 H59           -7.5189     7.2104     2.3980 H       
  60 H60            0.3484    -1.0463     5.3939 H       
  61 H61            1.7113    -1.9863     6.0474 H       
  62 H62            1.9127    -0.2530     5.6965 H       
  63 H63           -4.9923     2.2954    -2.9951 H       
  64 H64           -6.9470     0.9202    -3.5822 H       
  65 H65           -7.6499    -0.9181    -2.1044 H       
  66 H66           -6.4009    -1.3868    -0.0362 H       
  67 H67           -4.4371    -0.0256     0.5534 H       
@<TRIPOS>BOND
   1    1    2 ar
   2    1    6 ar
   3    1    7 1
   4    2    3 ar
   5    2   43 1
   6    3    4 ar
   7    3   23 1
   8    4    5 ar
   9    4   44 1
  10    5    6 ar
  11    5   45 1
  12    6   46 1
  13    7    8 1
  14    7   12 am
  15    8   13 2
  16    8    9 1
  17    9   10 1
  18    9   16 2
  19   10   11 1
  20   10   21 2
  21   11   12 am
  22   11   22 1
  23   12   34 2
  24   13   14 1
  25   13   20 1
  26   14   15 am
  27   14   19 2
  28   15   16 1
  29   15   18 1
  30   16   17 1
  31   17   27 1
  32   17   47 1
  33   18   48 1
  34   18   49 1
  35   18   50 1
  36   20   51 1
  37   20   52 1
  38   20   53 1
  39   21   54 1
  40   21   55 1
  41   22   38 ar
  42   22   42 ar
  43   23   24 am
  44   23   56 1
  45   24   25 1
  46   24   26 2
  47   25   36 1
  48   25   37 2
  49   27   28 ar
  50   27   32 ar
  51   28   29 ar
  52   28   57 1
  53   29   30 ar
  54   29   58 1
  55   30   31 ar
  56   30   35 1
  57   31   32 ar
  58   31   59 1
  59   32   33 1
  60   36   60 1
  61   36   61 1
  62   36   62 1
  63   38   39 ar
  64   38   63 1
  65   39   40 ar
  66   39   64 1
  67   40   41 ar
  68   40   65 1
  69   41   42 ar
  70   41   66 1
  71   42   67 1

#	End of record

