#	Name: ASD01918050
#	Creating user name:	WinNT
#	Creation time:	15. 06. 2019 20:10

#	Modifying user name:	WinNT
#	Modification time:	15. 06. 2019 20:10

#	Program:	/corina/corina34_cracker 3.40 0067  02.08.2006

@<TRIPOS>MOLECULE
ASD01918050
  45   49    0    0    0
SMALL
NO_CHARGES


@<TRIPOS>ATOM
   1 C1            -0.0752     1.2906     0.1407 C.ar    
   2 C2            -0.0752    -0.0967     0.1556 C.ar    
   3 C3             1.1218    -0.7862     0.1624 C.ar    
   4 C4             2.3192    -0.0950     0.1542 C.ar    
   5 C5             2.3220     1.2876     0.1398 C.ar    
   6 C6             1.1277     1.9818     0.1325 C.ar    
   7 O7            -1.2514     1.9712     0.1284 O.3     
   8 C8            -1.1752     3.3981     0.1133 C.3     
   9 C9            -2.5671     3.9754     0.1012 C.2     
  10 N10           -3.2730     4.2777     1.1564 N.2     
  11 C11           -4.4551     4.7640     0.7550 C.2     
  12 C12           -4.4613     4.7572    -0.5918 C.2     
  13 O13           -3.2818     4.2683    -0.9967 O.3     
  14 C14           -5.6004     5.2390     1.6129 C.3     
  15 C15           -6.5353     6.1026     0.7569 C.3     
  16 N16           -6.7658     5.4325    -0.5316 N.am    
  17 C17           -5.6153     5.2418    -1.4344 C.3     
  18 C18           -7.9964     5.0060    -0.8785 C.2     
  19 O19           -8.9113     5.0756    -0.0805 O.2     
  20 C20           -8.2332     4.4551    -2.2254 C.2     
  21 N21           -7.3748     4.4108    -3.2217 N.2     
  22 N22           -7.8820     3.8685    -4.2700 N.pl3   
  23 C23           -9.1757     3.4886    -4.0550 C.ar    
  24 C24           -9.4711     3.8413    -2.7196 C.ar    
  25 C25          -10.7332     3.5674    -2.2081 C.ar    
  26 N26          -11.6367     2.9815    -2.9682 N.ar    
  27 C27          -11.3882     2.6367    -4.2211 C.ar    
  28 C28          -10.1760     2.8763    -4.8062 C.ar    
  29 H29           -1.0103    -0.6370     0.1624 H       
  30 H30            1.1223    -1.8662     0.1743 H       
  31 H31            3.2540    -0.6359     0.1595 H       
  32 H32            3.2586     1.8252     0.1338 H       
  33 H33            1.1304     3.0617     0.1205 H       
  34 H34           -0.6464     3.7431     1.0019 H       
  35 H35           -0.6389     3.7239    -0.7780 H       
  36 H36           -6.1485     4.3795     1.9988 H       
  37 H37           -5.2142     5.8309     2.4427 H       
  38 H38           -7.4856     6.2337     1.2745 H       
  39 H39           -6.0760     7.0759     0.5844 H       
  40 H40           -5.3575     6.1899    -1.9063 H       
  41 H41           -5.8553     4.5003    -2.1964 H       
  42 H42           -7.4072     3.7454    -5.1069 H       
  43 H43          -10.9736     3.8336    -1.1895 H       
  44 H44          -12.1656     2.1590    -4.7990 H       
  45 H45           -9.9933     2.5850    -5.8300 H       
@<TRIPOS>BOND
   1    1    2 ar
   2    1    6 ar
   3    1    7 1
   4    2    3 ar
   5    2   29 1
   6    3    4 ar
   7    3   30 1
   8    4    5 ar
   9    4   31 1
  10    5    6 ar
  11    5   32 1
  12    6   33 1
  13    7    8 1
  14    8    9 1
  15    8   34 1
  16    8   35 1
  17    9   10 2
  18    9   13 1
  19   10   11 1
  20   11   14 1
  21   11   12 2
  22   12   13 1
  23   12   17 1
  24   14   15 1
  25   14   36 1
  26   14   37 1
  27   15   16 1
  28   15   38 1
  29   15   39 1
  30   16   17 1
  31   16   18 am
  32   17   40 1
  33   17   41 1
  34   18   19 2
  35   18   20 1
  36   20   21 2
  37   20   24 1
  38   21   22 1
  39   22   23 1
  40   22   42 1
  41   23   28 ar
  42   23   24 ar
  43   24   25 ar
  44   25   26 ar
  45   25   43 1
  46   26   27 ar
  47   27   28 ar
  48   27   44 1
  49   28   45 1

#	End of record

