#	Name: ASD01040001
#	Creating user name:	WinNT
#	Creation time:	15. 06. 2019 18:58

#	Modifying user name:	WinNT
#	Modification time:	15. 06. 2019 18:58

#	Program:	/corina/corina34_cracker 3.40 0067  02.08.2006

@<TRIPOS>MOLECULE
ASD01040001
  53   56    0    0    0
SMALL
NO_CHARGES


@<TRIPOS>ATOM
   1 O1            -0.1333     1.3639    -0.5474 O.3     
   2 C2            -0.0812     0.0106    -0.4398 C.ar    
   3 C3            -0.2007    -0.7796    -1.5756 C.ar    
   4 C4            -0.1483    -2.1530    -1.4705 C.ar    
   5 C5             0.0250    -2.7494    -0.2204 C.ar    
   6 C6             0.0822    -4.2231    -0.1033 C.2     
   7 C7            -1.1065    -5.0383    -0.4365 C.ar    
   8 C8            -1.0685    -5.9223    -1.5163 C.ar    
   9 C9            -2.1779    -6.6805    -1.8233 C.ar    
  10 C10           -3.3325    -6.5658    -1.0600 C.ar    
  11 O11           -4.4239    -7.3148    -1.3658 O.3     
  12 C12           -3.3740    -5.6879     0.0152 C.ar    
  13 C13           -2.2671    -4.9298     0.3315 C.ar    
  14 C14            1.2242    -4.8266     0.3094 C.2     
  15 C15            1.2811    -6.2915     0.4258 C.ar    
  16 C16            0.4786    -6.9537     1.3618 C.ar    
  17 C17            0.5348    -8.3276     1.4681 C.ar    
  18 C18            1.3818    -9.0556     0.6526 C.ar    
  19 C19            2.1838    -8.4085    -0.2812 C.ar    
  20 N20            3.0374    -9.1502    -1.1021 N.pl3   
  21 C21            3.5778   -10.3537    -0.6420 C.ar    
  22 C22            3.8752   -11.3715    -1.5396 C.ar    
  23 C23            4.4096   -12.5596    -1.0815 C.ar    
  24 C24            4.6484   -12.7370     0.2691 C.ar    
  25 C25            4.3536   -11.7259     1.1653 C.ar    
  26 C26            3.8243   -10.5331     0.7134 C.ar    
  27 C27            2.1325    -7.0287    -0.4018 C.ar    
  28 C28            2.4351    -3.9962     0.6488 C.3     
  29 C29            0.1447    -1.9518     0.9189 C.ar    
  30 C30            0.0970    -0.5789     0.8050 C.ar    
  31 H31            0.7273     1.7803    -0.6922 H       
  32 H32           -0.3351    -0.3175    -2.5424 H       
  33 H33           -0.2417    -2.7669    -2.3542 H       
  34 H34           -0.1711    -6.0117    -2.1105 H       
  35 H35           -2.1494    -7.3643    -2.6587 H       
  36 H36           -4.4501    -8.1723    -0.9196 H       
  37 H37           -4.2736    -5.6017     0.6067 H       
  38 H38           -2.2989    -4.2500     1.1701 H       
  39 H39           -0.1840    -6.3891     2.0009 H       
  40 H40           -0.0849    -8.8369     2.1912 H       
  41 H41            1.4208   -10.1312     0.7415 H       
  42 H42            3.2549    -8.8295    -1.9913 H       
  43 H43            3.6883   -11.2339    -2.5943 H       
  44 H44            4.6410   -13.3513    -1.7787 H       
  45 H45            5.0658   -13.6674     0.6247 H       
  46 H46            4.5409   -11.8679     2.2194 H       
  47 H47            3.5984    -9.7422     1.4133 H       
  48 H48            2.7511    -6.5248    -1.1297 H       
  49 H49            2.4091    -3.7309     1.7057 H       
  50 H50            3.3387    -4.5691     0.4402 H       
  51 H51            2.4334    -3.0880     0.0461 H       
  52 H52            0.2785    -2.4096     1.8879 H       
  53 H53            0.1943     0.0390     1.6854 H       
@<TRIPOS>BOND
   1    1    2 1
   2    1   31 1
   3    2   30 ar
   4    2    3 ar
   5    3    4 ar
   6    3   32 1
   7    4    5 ar
   8    4   33 1
   9    5   29 ar
  10    5    6 1
  11    6    7 1
  12    6   14 2
  13    7   13 ar
  14    7    8 ar
  15    8    9 ar
  16    8   34 1
  17    9   10 ar
  18    9   35 1
  19   10   11 1
  20   10   12 ar
  21   11   36 1
  22   12   37 1
  23   12   13 ar
  24   13   38 1
  25   14   15 1
  26   14   28 1
  27   15   27 ar
  28   15   16 ar
  29   16   17 ar
  30   16   39 1
  31   17   18 ar
  32   17   40 1
  33   18   41 1
  34   18   19 ar
  35   19   20 1
  36   19   27 ar
  37   20   21 1
  38   20   42 1
  39   21   22 ar
  40   21   26 ar
  41   22   23 ar
  42   22   43 1
  43   23   44 1
  44   23   24 ar
  45   24   45 1
  46   24   25 ar
  47   25   46 1
  48   25   26 ar
  49   26   47 1
  50   27   48 1
  51   28   49 1
  52   28   50 1
  53   28   51 1
  54   29   52 1
  55   29   30 ar
  56   30   53 1

#	End of record

