#	Name: ASD02030407
#	Creating user name:	WinNT
#	Creation time:	15. 06. 2019 20:15

#	Modifying user name:	WinNT
#	Modification time:	15. 06. 2019 20:15

#	Program:	/corina/corina34_cracker 3.40 0067  02.08.2006

@<TRIPOS>MOLECULE
ASD02030407
  75   78    0    0    0
SMALL
NO_CHARGES


@<TRIPOS>ATOM
   1 C1            -0.3499     1.6888    -0.3650 C.3     
   2 C2            -0.4422     0.1648    -0.4632 C.3     
   3 C3             0.1858    -0.3056    -1.7763 C.3     
   4 C4             1.6792     0.0345    -1.7782 C.3     
   5 C5             1.8319     1.5243    -1.5211 C.2     
   6 C6             1.1228     2.1077    -0.3354 C.3     
   7 C7             1.2312     3.6214    -0.2550 C.3     
   8 C8             2.5713     2.2172    -2.3369 C.2     
   9 C9             2.7899     3.6947    -2.1884 C.3     
  10 C10            2.6198     4.0852    -0.7162 C.3     
  11 C11            1.0941     5.6047     1.3188 C.3     
  12 C12            0.9196     4.0859     1.1648 C.3     
  13 C13            2.5217     5.9321     0.9246 C.3     
  14 C14            2.9260     7.4012     0.9975 C.3     
  15 C15            2.6664     5.5967    -0.5839 C.3     
  16 C16            4.0092     6.2543    -0.9208 C.3     
  17 C17            3.9347     7.6063    -0.1601 C.3     
  18 O18            0.0189    -1.7190    -1.9047 O.3     
  19 C19            3.5931     7.7014     2.3413 C.3     
  20 C20            4.1201     9.1378     2.3395 C.3     
  21 C21            1.7605     1.5159     0.9232 C.3     
  22 H22            3.3947     3.6159    -0.1102 H       
  23 C23            3.4943     5.0794     1.7419 C.3     
  24 H24            0.4851     4.0549    -0.9210 H       
  25 H25            1.8563     6.0515    -1.1540 H       
  26 C26            2.5703     7.5348     3.4669 C.3     
  27 C27            4.8952     9.3982     3.6326 C.3     
  28 C28            5.4222    10.8346     3.6308 C.3     
  29 C29            6.2487    11.0730     2.3655 C.3     
  30 O30            4.3217    11.7458     3.6596 O.3     
  31 C31            6.3009    11.0570     4.8634 C.3     
  32 C32           -0.4990     0.3976    -2.9499 C.3     
  33 H33           -0.8387     2.1392    -1.2289 H       
  34 H34           -0.8419     2.0248     0.5477 H       
  35 H35            0.0895    -0.2856     0.3750 H       
  36 H36           -1.4889    -0.1379    -0.4328 H       
  37 H37            2.1846    -0.5273    -0.9927 H       
  38 H38            2.1117    -0.2172    -2.7465 H       
  39 H39            3.0502     1.7057    -3.1587 H       
  40 H40            3.7973     3.9486    -2.5184 H       
  41 H41            2.0611     4.2333    -2.7942 H       
  42 H42            0.3983     6.1271     0.6622 H       
  43 H43            0.9186     5.8957     2.3545 H       
  44 H44           -0.1092     3.8200     1.4078 H       
  45 H45            1.5895     3.5791     1.8594 H       
  46 H46            2.0543     8.0402     0.8566 H       
  47 H47            4.8380     5.6497    -0.5524 H       
  48 H48            4.0988     6.4202    -1.9944 H       
  49 H49            3.5828     8.3925    -0.8281 H       
  50 H50            4.9152     7.8654     0.2395 H       
  51 H51            0.3941    -2.0873    -2.7163 H       
  52 H52            4.4216     7.0106     2.4980 H       
  53 H53            4.7808     9.2813     1.4846 H       
  54 H54            3.2825     9.8320     2.2718 H       
  55 H55            1.6798     0.4293     0.8948 H       
  56 H56            2.8116     1.8012     0.9664 H       
  57 H57            1.2444     1.8957     1.8050 H       
  58 H58            3.2579     4.0245     1.6026 H       
  59 H59            4.5141     5.2704     1.4078 H       
  60 H60            3.4036     5.3358     2.7974 H       
  61 H61            1.7823     8.2796     3.3550 H       
  62 H62            2.1359     6.5363     3.4183 H       
  63 H63            3.0639     7.6698     4.4293 H       
  64 H64            4.2345     9.2547     4.4875 H       
  65 H65            5.7329     8.7040     3.7002 H       
  66 H66            5.6227    10.9146     1.4874 H       
  67 H67            6.6241    12.0964     2.3642 H       
  68 H68            7.0881    10.3781     2.3435 H       
  69 H69            3.7532    11.6514     4.4361 H       
  70 H70            7.1403    10.3620     4.8414 H       
  71 H71            6.6764    12.0803     4.8621 H       
  72 H72            5.7121    10.8872     5.7648 H       
  73 H73           -0.3716     1.4757    -2.8520 H       
  74 H74           -0.0515     0.0623    -3.8856 H       
  75 H75           -1.5618     0.1557    -2.9484 H       
@<TRIPOS>BOND
   1    1    2 1
   2    1    6 1
   3    1   33 1
   4    1   34 1
   5    2    3 1
   6    2   35 1
   7    2   36 1
   8    3    4 1
   9    3   18 1
  10    3   32 1
  11    4    5 1
  12    4   37 1
  13    4   38 1
  14    5    8 2
  15    5    6 1
  16    6    7 1
  17    6   21 1
  18    7   10 1
  19    7   24 1
  20    7   12 1
  21    8    9 1
  22    8   39 1
  23    9   10 1
  24    9   40 1
  25    9   41 1
  26   10   15 1
  27   10   22 1
  28   11   12 1
  29   11   13 1
  30   11   42 1
  31   11   43 1
  32   12   44 1
  33   12   45 1
  34   13   15 1
  35   13   23 1
  36   13   14 1
  37   14   17 1
  38   14   19 1
  39   14   46 1
  40   15   16 1
  41   15   25 1
  42   16   17 1
  43   16   47 1
  44   16   48 1
  45   17   49 1
  46   17   50 1
  47   18   51 1
  48   19   20 1
  49   19   26 1
  50   19   52 1
  51   20   27 1
  52   20   53 1
  53   20   54 1
  54   21   55 1
  55   21   56 1
  56   21   57 1
  57   23   58 1
  58   23   59 1
  59   23   60 1
  60   26   61 1
  61   26   62 1
  62   26   63 1
  63   27   28 1
  64   27   64 1
  65   27   65 1
  66   28   29 1
  67   28   30 1
  68   28   31 1
  69   29   66 1
  70   29   67 1
  71   29   68 1
  72   30   69 1
  73   31   70 1
  74   31   71 1
  75   31   72 1
  76   32   73 1
  77   32   74 1
  78   32   75 1

#	End of record

