#	Name: ASD04590107
#	Creating user name:	WinNT
#	Creation time:	15. 06. 2019 20:50

#	Modifying user name:	WinNT
#	Modification time:	15. 06. 2019 20:50

#	Program:	/corina/corina34_cracker 3.40 0067  02.08.2006

@<TRIPOS>MOLECULE
ASD04590107
  33   35    0    0    0
SMALL
NO_CHARGES


@<TRIPOS>ATOM
   1 N1            -0.0168     1.2780    -0.0129 N.pl3   
   2 N2             0.0010    -0.0043    -0.0132 N.2     
   3 C3             1.2413    -0.4514    -0.0246 C.2     
   4 C4             2.1013     0.7388    -0.0322 C.2     
   5 C5             1.2292     1.7910    -0.0241 C.2     
   6 C6             1.6767    -1.8610    -0.0287 C.2     
   7 O7             2.8622    -2.1312    -0.0391 O.2     
   8 N8             0.7603    -2.8493    -0.0210 N.am    
   9 C9             1.1682    -4.1819    -0.1376 C.ar    
  10 C10            0.4824    -5.1815     0.5404 C.ar    
  11 C11            0.8875    -6.4966     0.4227 C.ar    
  12 C12            1.9745    -6.8186    -0.3691 C.ar    
  13 C13            2.6594    -5.8258    -1.0454 C.ar    
  14 C14            2.2563    -4.5094    -0.9362 C.ar    
  15 C15            3.5839     0.7881    -0.0453 C.ar    
  16 C16            4.2490     1.5856    -0.9746 C.ar    
  17 C17            4.3166     0.0414     0.8754 C.ar    
  18 C18            5.6957     0.0910     0.8587 C.ar    
  19 C19            6.3507     0.8799    -0.0697 C.ar    
  20 C20            5.6284     1.6275    -0.9822 C.ar    
  21 H21           -0.8265     1.8122    -0.0091 H       
  22 H22            1.4902     2.8390    -0.0267 H       
  23 H23           -0.1820    -2.6363     0.0654 H       
  24 H24           -0.3664    -4.9306     1.1592 H       
  25 H25            0.3549    -7.2743     0.9499 H       
  26 H26            2.2894    -7.8477    -0.4592 H       
  27 H27            3.5080    -6.0806    -1.6630 H       
  28 H28            2.7892    -3.7349    -1.4679 H       
  29 H29            3.6860     2.1695    -1.6878 H       
  30 H30            3.8061    -0.5746     1.6009 H       
  31 H31            6.2645    -0.4870     1.5720 H       
  32 H32            7.4301     0.9160    -0.0790 H       
  33 H33            6.1450     2.2415    -1.7051 H       
@<TRIPOS>BOND
   1    1    2 1
   2    1    5 1
   3    1   21 1
   4    2    3 2
   5    3    4 1
   6    3    6 1
   7    4    5 2
   8    4   15 1
   9    5   22 1
  10    6    7 2
  11    6    8 am
  12    8    9 1
  13    8   23 1
  14    9   10 ar
  15    9   14 ar
  16   10   11 ar
  17   10   24 1
  18   11   12 ar
  19   11   25 1
  20   12   13 ar
  21   12   26 1
  22   13   14 ar
  23   13   27 1
  24   14   28 1
  25   15   16 ar
  26   15   17 ar
  27   16   20 ar
  28   16   29 1
  29   17   18 ar
  30   17   30 1
  31   18   19 ar
  32   18   31 1
  33   19   20 ar
  34   19   32 1
  35   20   33 1

#	End of record

