#	Name: ASD01884937
#	Creating user name:	WinNT
#	Creation time:	15. 06. 2019 19:49

#	Modifying user name:	WinNT
#	Modification time:	15. 06. 2019 19:49

#	Program:	/corina/corina34_cracker 3.40 0067  02.08.2006

@<TRIPOS>MOLECULE
ASD01884937
  47   51    0    0    0
SMALL
NO_CHARGES


@<TRIPOS>ATOM
   1 C1            -0.0166     1.3746     0.0096 C.ar    
   2 C2             0.0021    -0.0041     0.0020 C.ar    
   3 C3            -1.1977    -0.7167     0.0101 C.ar    
   4 C4            -2.4129    -0.0321     0.0259 C.ar    
   5 C5            -2.4265     1.3465     0.0334 C.ar    
   6 C6            -1.2306     2.0547     0.0307 C.ar    
   7 C7            -1.1808    -2.1978     0.0015 C.2     
   8 C8            -1.6665    -2.9084     1.0846 C.2     
   9 C9            -0.6727    -2.9009    -1.1181 C.2     
  10 C10           -0.6591    -4.2467    -1.1244 C.2     
  11 N11           -1.1319    -4.9566    -0.0579 N.pl3   
  12 C12           -1.6372    -4.3137     1.0461 C.2     
  13 Cl13          -2.3017    -2.0777     2.4703 Cl      
  14 C14           -1.2395    -6.2882     0.2060 C.2     
  15 N15           -1.7714    -6.4127     1.3946 N.2     
  16 N16           -2.0111    -5.2541     1.9003 N.2     
  17 C17           -0.8223    -7.4135    -0.7055 C.3     
  18 N18           -1.2474     3.4505     0.0383 N.pl3   
  19 C19            0.2417    -8.3838    -0.1886 C.3     
  20 C20           -1.2161    -8.8349    -0.2988 C.3     
  21 C21           -2.5247     4.1677     0.0493 C.3     
  22 C22           -2.3277     5.5560     0.6658 C.3     
  23 C23           -3.0356     4.3264    -1.3861 C.3     
  24 C24           -4.3294     5.1447    -1.3714 C.3     
  25 O25           -4.0835     6.4114    -0.7575 O.3     
  26 C26           -3.6489     6.3268     0.6012 C.3     
  27 Cl27           1.4751     2.2625     0.0001 Cl      
  28 H28            0.9442    -0.5319    -0.0105 H       
  29 H29           -3.3426    -0.5816     0.0318 H       
  30 H30           -3.3673     1.8766     0.0452 H       
  31 H31           -0.2952    -2.3550    -1.9701 H       
  32 H32           -0.2695    -4.7719    -1.9839 H       
  33 H33           -0.8143    -7.1781    -1.7697 H       
  34 H34           -0.4132     3.9456     0.0364 H       
  35 H35            0.9495    -8.7870    -0.9128 H       
  36 H36            0.6400    -8.2082     0.8108 H       
  37 H37           -1.7769    -8.9562     0.6280 H       
  38 H38           -1.4674    -9.5350    -1.0956 H       
  39 H39           -3.2523     3.6078     0.6368 H       
  40 H40           -2.0170     5.4521     1.7054 H       
  41 H41           -1.5628     6.0969     0.1085 H       
  42 H42           -2.2851     4.8424    -1.9849 H       
  43 H43           -3.2312     3.3432    -1.8139 H       
  44 H44           -4.6746     5.2972    -2.3940 H       
  45 H45           -5.0920     4.6088    -0.8063 H       
  46 H46           -4.4025     5.8063     1.1922 H       
  47 H47           -3.5038     7.3309     0.9997 H       
@<TRIPOS>BOND
   1    1    2 ar
   2    1   27 1
   3    1    6 ar
   4    2    3 ar
   5    2   28 1
   6    3    4 ar
   7    3    7 1
   8    4    5 ar
   9    4   29 1
  10    5    6 ar
  11    5   30 1
  12    6   18 1
  13    7    8 2
  14    7    9 1
  15    8   13 1
  16    8   12 1
  17    9   10 2
  18    9   31 1
  19   10   11 1
  20   10   32 1
  21   11   12 1
  22   11   14 1
  23   12   16 2
  24   14   15 2
  25   14   17 1
  26   15   16 1
  27   17   19 1
  28   17   20 1
  29   17   33 1
  30   18   21 1
  31   18   34 1
  32   19   20 1
  33   19   35 1
  34   19   36 1
  35   20   37 1
  36   20   38 1
  37   21   22 1
  38   21   23 1
  39   21   39 1
  40   22   26 1
  41   22   40 1
  42   22   41 1
  43   23   24 1
  44   23   42 1
  45   23   43 1
  46   24   25 1
  47   24   44 1
  48   24   45 1
  49   25   26 1
  50   26   46 1
  51   26   47 1

#	End of record

