#	Name: ASD03090991
#	Creating user name:	WinNT
#	Creation time:	15. 06. 2019 20:29

#	Modifying user name:	WinNT
#	Modification time:	15. 06. 2019 20:29

#	Program:	/corina/corina34_cracker 3.40 0067  02.08.2006

@<TRIPOS>MOLECULE
ASD03090991
  46   48    0    0    0
SMALL
NO_CHARGES


@<TRIPOS>ATOM
   1 N1            -0.0175     1.3431    -0.0892 N.am    
   2 C2             0.0011    -0.0044    -0.0703 C.2     
   3 O3             1.0649    -0.5994    -0.0798 O.2     
   4 N4            -1.1464    -0.6880    -0.0411 N.2     
   5 C5             1.2408     2.0927    -0.1213 C.3     
   6 C6            -1.2961     2.0581    -0.0839 C.3     
   7 S7             0.2595    -3.0387    -0.0306 S.3     
   8 C8            -1.1280    -2.0187    -0.0223 C.2     
   9 N9            -2.1987    -2.8518     0.0077 N.pl3   
  10 C10           -1.9391    -4.1884     0.0229 C.2     
  11 C11           -0.6633    -4.5510     0.0069 C.2     
  12 C12           -0.1140    -5.9542     0.0186 C.3     
  13 C13            0.6185    -6.2262    -1.2968 C.3     
  14 C14            1.0681    -7.6881    -1.3374 C.3     
  15 C15            1.8007    -7.9600    -2.6528 C.3     
  16 O16            0.7968    -6.1001     1.1101 O.3     
  17 O17           -7.4524    -1.1574     0.0453 O.3     
  18 C18           -8.0539    -2.4331     0.3354 C.3     
  19 O19           -7.0845    -3.3848    -0.1417 O.3     
  20 C20           -5.8790    -2.7494    -0.0608 C.ar    
  21 C21           -6.1048    -1.3793     0.0543 C.ar    
  22 C22           -4.5832    -3.2363    -0.0763 C.ar    
  23 C23           -3.5113    -2.3592     0.0230 C.ar    
  24 C24           -3.7393    -0.9949     0.1377 C.ar    
  25 C25           -5.0326    -0.5079     0.1538 C.ar    
  26 F26           -8.2518    -2.5814     1.7124 F       
  27 F27           -9.2627    -2.5748    -0.3544 F       
  28 H28            1.5355     2.2639    -1.1566 H       
  29 H29            1.1060     3.0505     0.3812 H       
  30 H30            2.0171     1.5214     0.3877 H       
  31 H31           -2.1147     1.3387    -0.0637 H       
  32 H32           -1.3518     2.6966     0.7978 H       
  33 H33           -1.3733     2.6712    -0.9819 H       
  34 H34           -2.7344    -4.9188     0.0469 H       
  35 H35           -0.9333    -6.6642     0.1317 H       
  36 H36           -0.0516    -6.0288    -2.1334 H       
  37 H37            1.4903    -5.5758    -1.3683 H       
  38 H38            1.7383    -7.8855    -0.5007 H       
  39 H39            0.1963    -8.3384    -1.2659 H       
  40 H40            1.1305    -7.7626    -3.4894 H       
  41 H41            2.6725    -7.3097    -2.7243 H       
  42 H42            2.1210    -9.0015    -2.6817 H       
  43 H43            1.5527    -5.4981     1.0747 H       
  44 H44           -4.4060    -4.2979    -0.1651 H       
  45 H45           -2.9052    -0.3132     0.2149 H       
  46 H46           -5.2076     0.5542     0.2426 H       
@<TRIPOS>BOND
   1    1    2 am
   2    1    5 1
   3    1    6 1
   4    2    3 2
   5    2    4 1
   6    4    8 2
   7    5   28 1
   8    5   29 1
   9    5   30 1
  10    6   31 1
  11    6   32 1
  12    6   33 1
  13    7    8 1
  14    7   11 1
  15    8    9 1
  16    9   10 1
  17    9   23 1
  18   10   11 2
  19   10   34 1
  20   11   12 1
  21   12   13 1
  22   12   16 1
  23   12   35 1
  24   13   14 1
  25   13   36 1
  26   13   37 1
  27   14   15 1
  28   14   38 1
  29   14   39 1
  30   15   40 1
  31   15   41 1
  32   15   42 1
  33   16   43 1
  34   17   18 1
  35   17   21 1
  36   18   19 1
  37   18   26 1
  38   18   27 1
  39   19   20 1
  40   20   21 ar
  41   20   22 ar
  42   21   25 ar
  43   22   23 ar
  44   22   44 1
  45   23   24 ar
  46   24   25 ar
  47   24   45 1
  48   25   46 1

#	End of record

