#	Name: ASD01948265
#	Creating user name:	WinNT
#	Creation time:	15. 06. 2019 20:14

#	Modifying user name:	WinNT
#	Modification time:	15. 06. 2019 20:14

#	Program:	/corina/corina34_cracker 3.40 0067  02.08.2006

@<TRIPOS>MOLECULE
ASD01948265
  42   45    0    0    0
SMALL
NO_CHARGES


@<TRIPOS>ATOM
   1 C1             1.3453    -0.1823    -0.1208 C.ar    
   2 C2             0.7850    -0.0904    -1.3828 C.ar    
   3 C3             1.3645     0.7188    -2.3429 C.ar    
   4 C4             2.5057     1.4389    -2.0456 C.ar    
   5 C5             3.0716     1.3501    -0.7810 C.ar    
   6 C6             2.4868     0.5352     0.1836 C.ar    
   7 C7             5.5955     0.0909    -0.6640 C.ar    
   8 C8             5.4344     1.4071    -0.2354 C.ar    
   9 N9             4.2263     2.0776    -0.4773 N.pl3   
  10 C10            6.7794    -0.5780    -0.4313 C.ar    
  11 C11            7.8243     0.0675     0.2382 C.ar    
  12 C12            7.6631     1.3914     0.6701 C.ar    
  13 C13            6.4659     2.0580     0.4312 C.ar    
  14 N14            6.3001     3.3837     0.8614 N.am    
  15 I15           -0.9448    -1.1802    -1.8402 I       
  16 F16            6.9292    -1.8541    -0.8489 F       
  17 F17            3.0337     0.4459     1.4158 F       
  18 F18            4.5848    -0.5352    -1.3057 F       
  19 O19            8.8234     1.7366     1.2730 O.3     
  20 C20            9.6538     0.6829     1.2155 C.2     
  21 N21            9.0788    -0.3105     0.6081 N.2     
  22 S22            7.4940     4.1254     1.7371 S.o2    
  23 O23            8.6518     4.0067     0.9219 O.2     
  24 O24            6.9524     5.3991     2.0593 O.2     
  25 C25            7.6592     3.1079     3.2297 C.3     
  26 C26            8.7032     3.5346     4.2636 C.3     
  27 C27            7.2137     3.7238     4.5575 C.3     
  28 C28            9.4383     2.4285     5.0233 C.3     
  29 O29           10.4469     3.0093     5.8523 O.3     
  30 H30            0.8877    -0.8117     0.6282 H       
  31 H31            0.9247     0.7877    -3.3269 H       
  32 H32            2.9574     2.0702    -2.7966 H       
  33 H33            4.1920     3.0460    -0.4338 H       
  34 H34            5.4863     3.8654     0.6457 H       
  35 H35           10.6563     0.6642     1.6169 H       
  36 H36            7.4963     2.0392     3.0905 H       
  37 H37            9.2908     4.4267     4.0469 H       
  38 H38            6.8213     4.7404     4.5341 H       
  39 H39            6.7574     3.0603     5.2921 H       
  40 H40            8.7290     1.8807     5.6437 H       
  41 H41            9.9018     1.7452     4.3117 H       
  42 H42           10.9542     2.3649     6.3646 H       
@<TRIPOS>BOND
   1    1    2 ar
   2    1    6 ar
   3    1   30 1
   4    2    3 ar
   5    2   15 1
   6    3    4 ar
   7    3   31 1
   8    4    5 ar
   9    4   32 1
  10    5    6 ar
  11    5    9 1
  12    6   17 1
  13    7    8 ar
  14    7   10 ar
  15    7   18 1
  16    8    9 1
  17    8   13 ar
  18    9   33 1
  19   10   11 ar
  20   10   16 1
  21   11   12 ar
  22   11   21 1
  23   12   13 ar
  24   12   19 1
  25   13   14 1
  26   14   22 am
  27   14   34 1
  28   19   20 1
  29   20   21 2
  30   20   35 1
  31   22   23 2
  32   22   24 2
  33   22   25 1
  34   25   26 1
  35   25   27 1
  36   25   36 1
  37   26   27 1
  38   26   28 1
  39   26   37 1
  40   27   38 1
  41   27   39 1
  42   28   29 1
  43   28   40 1
  44   28   41 1
  45   29   42 1

#	End of record

