#	Name: ASD01410657
#	Creating user name:	WinNT
#	Creation time:	15. 06. 2019 19:18

#	Modifying user name:	WinNT
#	Modification time:	15. 06. 2019 19:18

#	Program:	/corina/corina34_cracker 3.40 0067  02.08.2006

@<TRIPOS>MOLECULE
ASD01410657
  82   86    0    0    0
SMALL
NO_CHARGES


@<TRIPOS>ATOM
   1 C1             0.5069     2.3836    -2.1496 C.ar    
   2 C2             1.2879     2.4413    -3.2954 C.ar    
   3 C3             2.5959     2.0013    -3.2444 C.ar    
   4 N4             3.1074     1.5294    -2.1237 N.ar    
   5 C5             2.3948     1.4585    -1.0112 C.ar    
   6 C6             1.0726     1.8834    -0.9896 C.ar    
   7 O7             2.9609     0.9662     0.1191 O.3     
   8 C8             4.2224     0.4657     0.0354 C.ar    
   9 C9             4.4457    -0.8890     0.2509 C.ar    
  10 C10            5.7221    -1.4074     0.1685 C.ar    
  11 C11            6.7935    -0.5773    -0.1305 C.ar    
  12 C12            6.5747     0.7915    -0.3492 C.ar    
  13 C13            5.2782     1.3053    -0.2694 C.ar    
  14 N14            8.0827    -1.1014    -0.2127 N.am    
  15 C15            8.5747    -1.4967    -1.4036 C.2     
  16 C16            8.9027    -1.2224     0.9952 C.3     
  17 O17            7.9462    -1.2865    -2.4193 O.2     
  18 C18            9.9057    -2.2001    -1.4730 C.3     
  19 C19           10.3215    -2.3616    -2.9365 C.3     
  20 C20           11.6728    -3.0757    -3.0069 C.3     
  21 C21           11.5554    -4.4548    -2.3549 C.3     
  22 C22           11.1396    -4.2933    -0.8914 C.3     
  23 C23            9.7883    -3.5792    -0.8210 C.3     
  24 C24           12.9067    -5.1689    -2.4254 C.3     
  25 C25            9.4126     0.1604     1.4061 C.3     
  26 C26            8.0591    -1.8119     2.1273 C.3     
  27 C27            0.7145     2.9780    -4.5816 C.3     
  28 C28            6.8691    -0.8924     2.4087 C.3     
  29 C29            0.9490     4.4648    -4.6544 C.ar    
  30 C30            1.5950     5.0104    -5.7493 C.ar    
  31 C31            7.3790     0.4904     2.8196 C.3     
  32 N32            0.5325     5.2481    -3.6749 N.ar    
  33 C33            0.7377     6.5518    -3.7389 C.ar    
  34 C34            1.3887     7.0969    -4.8317 C.ar    
  35 N35            1.8003     6.3143    -5.8134 N.ar    
  36 C36            8.2226     1.0800     1.6875 C.3     
  37 O37            6.2676     1.3493     3.0824 O.3     
  38 C38            6.5294     2.3551     4.0631 C.3     
  39 C39            0.2647     1.8007     0.2799 C.3     
  40 F40           -1.0261     2.2856     0.0436 F       
  41 F41            0.1926     0.4685     0.7009 F       
  42 F42            0.8777     2.5713     1.2737 F       
  43 C43            7.7061     1.6812    -0.6667 C.2     
  44 O44            8.8173     1.2168    -0.8287 O.2     
  45 O45            7.5083     3.0095    -0.7774 O.3     
  46 H46           -0.5175     2.7255    -2.1616 H       
  47 H47            3.2077     2.0438    -4.1334 H       
  48 H48            3.6159    -1.5395     0.4846 H       
  49 H49            5.8877    -2.4612     0.3373 H       
  50 H50            5.1019     2.3577    -0.4365 H       
  51 H51            9.7504    -1.8775     0.7948 H       
  52 H52           10.6557    -1.6113    -0.9450 H       
  53 H53            9.5714    -2.9504    -3.4645 H       
  54 H54           10.4051    -1.3790    -3.4010 H       
  55 H55           11.9690    -3.1907    -4.0496 H       
  56 H56           12.4228    -2.4868    -2.4789 H       
  57 H57           10.8053    -5.0436    -2.8829 H       
  58 H58           11.0560    -5.2759    -0.4269 H       
  59 H59           11.8897    -3.7045    -0.3634 H       
  60 H60            9.4920    -3.4642     0.2217 H       
  61 H61            9.0382    -4.1681    -1.3489 H       
  62 H62           13.6568    -4.5801    -1.8974 H       
  63 H63           12.8231    -6.1514    -1.9609 H       
  64 H64           13.2029    -5.2839    -3.4680 H       
  65 H65           10.0227     0.0704     2.3049 H       
  66 H66           10.0136     0.5804     0.5996 H       
  67 H67            7.6957    -2.7970     1.8346 H       
  68 H68            8.6691    -1.9020     3.0261 H       
  69 H69            1.2010     2.4916    -5.4271 H       
  70 H70           -0.3564     2.7770    -4.6138 H       
  71 H71            6.2590    -0.8023     1.5100 H       
  72 H72            6.2681    -1.3124     3.2153 H       
  73 H73            1.9320     4.3706    -6.5515 H       
  74 H74            7.9891     0.4004     3.7183 H       
  75 H75            0.3971     7.1920    -2.9385 H       
  76 H76            1.5565     8.1625    -4.8840 H       
  77 H77            8.5859     2.0651     1.9802 H       
  78 H78            7.6125     1.1700     0.7887 H       
  79 H79            6.7996     1.8809     5.0067 H       
  80 H80            7.3511     2.9866     3.7254 H       
  81 H81            5.6372     2.9649     4.2054 H       
  82 H82            8.2805     3.5524    -0.9870 H       
@<TRIPOS>BOND
   1    1    2 ar
   2    1    6 ar
   3    1   46 1
   4    2    3 ar
   5    2   27 1
   6    3    4 ar
   7    3   47 1
   8    4    5 ar
   9    5    6 ar
  10    5    7 1
  11    6   39 1
  12    7    8 1
  13    8    9 ar
  14    8   13 ar
  15    9   10 ar
  16    9   48 1
  17   10   11 ar
  18   10   49 1
  19   11   12 ar
  20   11   14 1
  21   12   13 ar
  22   12   43 1
  23   13   50 1
  24   14   15 am
  25   14   16 1
  26   15   17 2
  27   15   18 1
  28   16   25 1
  29   16   26 1
  30   16   51 1
  31   18   19 1
  32   18   23 1
  33   18   52 1
  34   19   20 1
  35   19   53 1
  36   19   54 1
  37   20   21 1
  38   20   55 1
  39   20   56 1
  40   21   22 1
  41   21   24 1
  42   21   57 1
  43   22   23 1
  44   22   58 1
  45   22   59 1
  46   23   60 1
  47   23   61 1
  48   24   62 1
  49   24   63 1
  50   24   64 1
  51   25   36 1
  52   25   65 1
  53   25   66 1
  54   26   28 1
  55   26   67 1
  56   26   68 1
  57   27   29 1
  58   27   69 1
  59   27   70 1
  60   28   31 1
  61   28   71 1
  62   28   72 1
  63   29   32 ar
  64   29   30 ar
  65   30   35 ar
  66   30   73 1
  67   31   37 1
  68   31   36 1
  69   31   74 1
  70   32   33 ar
  71   33   34 ar
  72   33   75 1
  73   34   35 ar
  74   34   76 1
  75   36   77 1
  76   36   78 1
  77   37   38 1
  78   38   79 1
  79   38   80 1
  80   38   81 1
  81   39   40 1
  82   39   41 1
  83   39   42 1
  84   43   44 2
  85   43   45 1
  86   45   82 1

#	End of record

