#	Name: ASD02030618
#	Creating user name:	WinNT
#	Creation time:	15. 06. 2019 20:15

#	Modifying user name:	WinNT
#	Modification time:	15. 06. 2019 20:15

#	Program:	/corina/corina34_cracker 3.40 0067  02.08.2006

@<TRIPOS>MOLECULE
ASD02030618
  67   70    0    0    0
SMALL
NO_CHARGES


@<TRIPOS>ATOM
   1 C1             0.1639     1.1550    -0.0916 C.ar    
   2 C2             0.0220    -0.2162    -0.0959 C.ar    
   3 C3             1.1488    -1.0230    -0.1659 C.ar    
   4 C4             2.4044    -0.4438    -0.2249 C.ar    
   5 C5             2.5455     0.9379    -0.2139 C.ar    
   6 C6             1.4240     1.7352    -0.1564 C.ar    
   7 C7             1.5037     3.2413    -0.1748 C.3     
   8 C8             3.9437     1.4964    -0.2517 C.3     
   9 C9             3.9364     2.9499    -0.7224 C.3     
  10 N10            2.8930     3.6651     0.0293 N.am    
  11 C11            1.0061     3.7610    -1.5250 C.3     
  12 O12            1.7456     3.1379    -2.5772 O.3     
  13 C13            1.4254     3.4920    -3.8504 C.ar    
  14 C14            3.2022     4.6699     0.8726 C.2     
  15 O15            4.3660     4.9524     1.0806 O.2     
  16 C16            2.1258     5.4286     1.5448 C.ar    
  17 C17            0.7732     4.2124    -6.4425 C.ar    
  18 C18            0.0990     4.7836    -5.3735 C.ar    
  19 C19            0.4242     4.4239    -4.0801 C.ar    
  20 C20            2.1039     2.9254    -4.9192 C.ar    
  21 C21            1.7786     3.2850    -6.2126 C.ar    
  22 C22            2.3065     5.8970     2.8469 C.ar    
  23 C23            0.9266     5.6844     0.8776 C.ar    
  24 C24           -0.0736     6.3927     1.5104 C.ar    
  25 C25            0.1097     6.8495     2.8037 C.ar    
  26 C26            1.2979     6.6044     3.4684 C.ar    
  27 O27            0.4530     4.5665    -7.7158 O.3     
  28 C28            1.1880     3.9385    -8.7681 C.3     
  29 C29            0.6911     4.4590   -10.1184 C.3     
  30 O30            1.0201    -2.3758    -0.1760 O.3     
  31 C31           -0.2939    -2.9039     0.0155 C.3     
  32 C32           -0.9444    -3.1588    -1.3457 C.3     
  33 C33           -0.2068    -4.2186     0.7933 C.3     
  34 C34            1.4912     7.1110     4.8745 C.3     
  35 F35            2.0485     8.3936     4.8356 F       
  36 F36            0.2546     7.1594     5.5268 F       
  37 F37            2.3500     6.2502     5.5664 F       
  38 H38           -0.7129     1.7837    -0.0420 H       
  39 H39           -0.9612    -0.6603    -0.0448 H       
  40 H40            3.2817    -1.0713    -0.2795 H       
  41 H41            0.8800     3.6472     0.6216 H       
  42 H42            4.3772     1.4453     0.7471 H       
  43 H43            4.5491     0.9013    -0.9353 H       
  44 H44            4.9079     3.4049    -0.5292 H       
  45 H45            3.7149     2.9909    -1.7889 H       
  46 H46           -0.0525     3.5265    -1.6368 H       
  47 H47            1.1461     4.8409    -1.5727 H       
  48 H48           -0.6839     5.5058    -5.5525 H       
  49 H49           -0.1013     4.8682    -3.2477 H       
  50 H50            2.8867     2.2032    -4.7402 H       
  51 H51            2.3036     2.8402    -7.0451 H       
  52 H52            3.2335     5.7060     3.3670 H       
  53 H53            0.7824     5.3287    -0.1319 H       
  54 H54           -1.0018     6.5916     0.9952 H       
  55 H55           -0.6764     7.4039     3.2946 H       
  56 H56            2.2479     4.1678    -8.6581 H       
  57 H57            1.0427     2.8593    -8.7190 H       
  58 H58           -0.3688     4.2296   -10.2284 H       
  59 H59            0.8363     5.5381   -10.1675 H       
  60 H60            1.2517     3.9799   -10.9210 H       
  61 H61           -0.8947    -2.1886     0.5771 H       
  62 H62           -1.9467    -3.5616    -1.1996 H       
  63 H63           -1.0064    -2.2222    -1.8998 H       
  64 H64           -0.3436    -3.8741    -1.9073 H       
  65 H65            0.2567    -4.0371     1.7630 H       
  66 H66           -1.2090    -4.6214     0.9393 H       
  67 H67            0.3940    -4.9339     0.2316 H       
@<TRIPOS>BOND
   1    1    2 ar
   2    1    6 ar
   3    1   38 1
   4    2    3 ar
   5    2   39 1
   6    3    4 ar
   7    3   30 1
   8    4    5 ar
   9    4   40 1
  10    5    6 ar
  11    5    8 1
  12    6    7 1
  13    7   10 1
  14    7   11 1
  15    7   41 1
  16    8    9 1
  17    8   42 1
  18    8   43 1
  19    9   10 1
  20    9   44 1
  21    9   45 1
  22   10   14 am
  23   11   12 1
  24   11   46 1
  25   11   47 1
  26   12   13 1
  27   13   20 ar
  28   13   19 ar
  29   14   15 2
  30   14   16 1
  31   16   23 ar
  32   16   22 ar
  33   17   18 ar
  34   17   21 ar
  35   17   27 1
  36   18   19 ar
  37   18   48 1
  38   19   49 1
  39   20   21 ar
  40   20   50 1
  41   21   51 1
  42   22   26 ar
  43   22   52 1
  44   23   24 ar
  45   23   53 1
  46   24   25 ar
  47   24   54 1
  48   25   26 ar
  49   25   55 1
  50   26   34 1
  51   27   28 1
  52   28   29 1
  53   28   56 1
  54   28   57 1
  55   29   58 1
  56   29   59 1
  57   29   60 1
  58   30   31 1
  59   31   32 1
  60   31   33 1
  61   31   61 1
  62   32   62 1
  63   32   63 1
  64   32   64 1
  65   33   65 1
  66   33   66 1
  67   33   67 1
  68   34   35 1
  69   34   36 1
  70   34   37 1

#	End of record

