#	Name: ASD01883397
#	Creating user name:	WinNT
#	Creation time:	15. 06. 2019 19:46

#	Modifying user name:	WinNT
#	Modification time:	15. 06. 2019 19:46

#	Program:	/corina/corina34_cracker 3.40 0067  02.08.2006

@<TRIPOS>MOLECULE
ASD01883397
  59   62    0    0    0
SMALL
NO_CHARGES


@<TRIPOS>ATOM
   1 N1             0.0819     1.1553    -0.0250 N.am    
   2 C2            -0.7296     1.3646     1.0282 C.2     
   3 C3            -1.9947     0.7331     1.0805 C.2     
   4 C4            -2.3747    -0.1055     0.0191 C.2     
   5 C5            -1.4825    -0.2846    -1.0542 C.2     
   6 C6            -0.2890     0.3483    -1.0529 C.2     
   7 O7            -0.3748     2.0971     1.9363 O.2     
   8 C8            -2.8705     0.9442     2.1937 C.1     
   9 N9            -3.5653     1.1116     3.0767 N.1     
  10 C10            1.3889     1.8158    -0.0665 C.3     
  11 N11           -3.5964    -0.7402     0.0292 N.pl3   
  12 C12            2.4193     0.9324     0.5884 C.ar    
  13 C13           -4.8450     0.0276     0.1508 C.3     
  14 C14           -5.7929    -0.4034    -0.9735 C.3     
  15 N15           -5.9555    -1.8629    -0.9400 N.3     
  16 C16           -4.6811    -2.5471    -1.1964 C.3     
  17 C17           -3.6879    -2.2035    -0.0874 C.3     
  18 C18           -6.9877    -2.2996    -1.8897 C.3     
  19 C19            3.1190     0.0105    -0.1681 C.ar    
  20 C20            4.0640    -0.8006     0.4299 C.ar    
  21 C21            4.3107    -0.6894     1.7906 C.ar    
  22 C22            3.6073     0.2364     2.5474 C.ar    
  23 C23            2.6673     1.0490     1.9436 C.ar    
  24 C24           -6.5445    -1.9818    -3.2946 C.2     
  25 C25           -7.3478    -2.4375    -4.4404 C.ar    
  26 C26           -6.9399    -2.1447    -5.7456 C.ar    
  27 C27           -7.6980    -2.5751    -6.8139 C.ar    
  28 C28           -8.8602    -3.2948    -6.5970 C.ar    
  29 C29           -9.2706    -3.5887    -5.3083 C.ar    
  30 C30           -8.5201    -3.1706    -4.2297 C.ar    
  31 O31           -5.5261    -1.3507    -3.4809 O.2     
  32 O32            5.2396    -1.4865     2.3812 O.3     
  33 C33            5.4410    -1.3170     3.7858 C.3     
  34 F34            4.2431    -1.5705     4.4626 F       
  35 F35            6.4238    -2.2096     4.2270 F       
  36 F36            5.8533    -0.0051     4.0428 F       
  37 H37           -1.7533    -0.9249    -1.8807 H       
  38 H38            0.3876     0.2032    -1.8821 H       
  39 H39            1.6718     1.9968    -1.1035 H       
  40 H40            1.3333     2.7653     0.4659 H       
  41 H41           -5.3069    -0.1752     1.1171 H       
  42 H42           -4.6303     1.0924     0.0607 H       
  43 H43           -6.7629     0.0739    -0.8343 H       
  44 H44           -5.3753    -0.1058    -1.9353 H       
  45 H45           -4.8447    -3.6245    -1.2190 H       
  46 H46           -4.2790    -2.2197    -2.1552 H       
  47 H47           -2.7087    -2.6148    -0.3325 H       
  48 H48           -4.0365    -2.6191     0.8580 H       
  49 H49           -7.1408    -3.3743    -1.7913 H       
  50 H50           -7.9212    -1.7786    -1.6766 H       
  51 H51            2.9263    -0.0759    -1.2272 H       
  52 H52            4.6101    -1.5208    -0.1613 H       
  53 H53            3.7975     0.3248     3.6068 H       
  54 H54            2.1194     1.7699     2.5323 H       
  55 H55           -6.0337    -1.5826    -5.9164 H       
  56 H56           -7.3843    -2.3498    -7.8225 H       
  57 H57           -9.4501    -3.6286    -7.4379 H       
  58 H58          -10.1788    -4.1504    -5.1472 H       
  59 H59           -8.8416    -3.4007    -3.2247 H       
@<TRIPOS>BOND
   1    1    2 am
   2    1   10 1
   3    1    6 1
   4    2    3 1
   5    2    7 2
   6    3    4 2
   7    3    8 1
   8    4    5 1
   9    4   11 1
  10    5    6 2
  11    5   37 1
  12    6   38 1
  13    8    9 3
  14   10   12 1
  15   10   39 1
  16   10   40 1
  17   11   13 1
  18   11   17 1
  19   12   19 ar
  20   12   23 ar
  21   13   14 1
  22   13   41 1
  23   13   42 1
  24   14   15 1
  25   14   43 1
  26   14   44 1
  27   15   16 1
  28   15   18 1
  29   16   17 1
  30   16   45 1
  31   16   46 1
  32   17   47 1
  33   17   48 1
  34   18   24 1
  35   18   49 1
  36   18   50 1
  37   19   20 ar
  38   19   51 1
  39   20   21 ar
  40   20   52 1
  41   21   22 ar
  42   21   32 1
  43   22   23 ar
  44   22   53 1
  45   23   54 1
  46   24   25 1
  47   24   31 2
  48   25   26 ar
  49   25   30 ar
  50   26   27 ar
  51   26   55 1
  52   27   28 ar
  53   27   56 1
  54   28   29 ar
  55   28   57 1
  56   29   30 ar
  57   29   58 1
  58   30   59 1
  59   32   33 1
  60   33   34 1
  61   33   35 1
  62   33   36 1

#	End of record

