#	Name: ASD02030245
#	Creating user name:	WinNT
#	Creation time:	15. 06. 2019 20:14

#	Modifying user name:	WinNT
#	Modification time:	15. 06. 2019 20:14

#	Program:	/corina/corina34_cracker 3.40 0067  02.08.2006

@<TRIPOS>MOLECULE
ASD02030245
  58   62    0    0    0
SMALL
NO_CHARGES


@<TRIPOS>ATOM
   1 N1            -0.3604     1.4504    -0.3942 N.am    
   2 C2            -0.3850    -0.0184    -0.3520 C.3     
   3 C3            -1.1693    -0.4600     0.8898 C.3     
   4 N4            -2.4438     0.2711     0.9248 N.am    
   5 C5            -2.4191     1.7399     0.8826 C.3     
   6 C6            -1.6346     2.1816    -0.3535 C.3     
   7 C7             0.8100     2.1152    -0.4632 C.2     
   8 C8             2.0867     1.3750    -0.3761 C.2     
   9 N9             3.2877     1.9085    -0.3141 N.2     
  10 N10            2.2249     0.0369    -0.3404 N.2     
  11 C11            3.5058    -0.2200    -0.2623 C.2     
  12 N12            4.1580     0.9606    -0.2468 N.pl3   
  13 O13            0.8158     3.3233    -0.5972 O.2     
  14 C14           -3.6142    -0.3937     0.9939 C.2     
  15 C15           -3.6294    -1.8704     0.9412 C.ar    
  16 O16           -4.6573     0.2216     1.0996 O.2     
  17 C17           -1.3632     3.6855    -0.2792 C.3     
  18 C18           -2.4410     1.8635    -1.6143 C.3     
  19 C19            5.5473     1.1280    -0.1707 C.ar    
  20 C20            6.0946     2.4037    -0.1628 C.ar    
  21 C21            7.4655     2.5654    -0.0872 C.ar    
  22 C22            8.2912     1.4570    -0.0199 C.ar    
  23 C23            7.7479     0.1854    -0.0276 C.ar    
  24 C24            6.3788     0.0181    -0.0972 C.ar    
  25 C25           -2.7441    -2.5952     1.7220 C.ar    
  26 Cl26           8.1516     4.1601    -0.0773 Cl      
  27 C27           -4.5464    -2.5292     0.1031 C.ar    
  28 C28           -4.5798    -3.8847     0.0373 C.ar    
  29 C29           -3.6902    -4.6491     0.8138 C.ar    
  30 C30           -2.7640    -3.9966     1.6670 C.ar    
  31 C31           -3.7059    -6.0531     0.7625 C.ar    
  32 C32           -2.8325    -6.7661     1.5253 C.ar    
  33 C33           -1.9192    -6.1251     2.3604 C.ar    
  34 C34           -1.8771    -4.7672     2.4403 C.ar    
  35 H35           -0.8727    -0.4020    -1.2482 H       
  36 H36            0.6345    -0.3999    -0.2956 H       
  37 H37           -1.3634    -1.5313     0.8381 H       
  38 H38           -0.5927    -0.2330     1.7865 H       
  39 H39           -3.4387     2.1214     0.8262 H       
  40 H40           -1.9315     2.1235     1.7788 H       
  41 H41            3.9583    -1.1994    -0.2157 H       
  42 H42           -0.6940     3.8931     0.5558 H       
  43 H43           -0.8990     4.0173    -1.2079 H       
  44 H44           -2.3031     4.2175    -0.1324 H       
  45 H45           -3.3925     2.3943    -1.5805 H       
  46 H46           -1.8799     2.1792    -2.4938 H       
  47 H47           -2.6252     0.7905    -1.6666 H       
  48 H48            5.4502     3.2687    -0.2161 H       
  49 H49            9.3620     1.5853     0.0384 H       
  50 H50            8.3948    -0.6778     0.0247 H       
  51 H51            5.9555    -0.9755    -0.1028 H       
  52 H52           -2.0441    -2.0855     2.3674 H       
  53 H53           -5.2332    -1.9493    -0.4957 H       
  54 H54           -5.2899    -4.3764    -0.6112 H       
  55 H55           -4.4082    -6.5644     0.1209 H       
  56 H56           -2.8477    -7.8452     1.4830 H       
  57 H57           -1.2374    -6.7145     2.9554 H       
  58 H58           -1.1641    -4.2837     3.0917 H       
@<TRIPOS>BOND
   1    1    2 1
   2    1    7 am
   3    1    6 1
   4    2    3 1
   5    2   35 1
   6    2   36 1
   7    3    4 1
   8    3   37 1
   9    3   38 1
  10    4    5 1
  11    4   14 am
  12    5    6 1
  13    5   39 1
  14    5   40 1
  15    6   17 1
  16    6   18 1
  17    7    8 1
  18    7   13 2
  19    8    9 2
  20    8   10 1
  21    9   12 1
  22   10   11 2
  23   11   12 1
  24   11   41 1
  25   12   19 1
  26   14   15 1
  27   14   16 2
  28   15   27 ar
  29   15   25 ar
  30   17   42 1
  31   17   43 1
  32   17   44 1
  33   18   45 1
  34   18   46 1
  35   18   47 1
  36   19   20 ar
  37   19   24 ar
  38   20   21 ar
  39   20   48 1
  40   21   22 ar
  41   21   26 1
  42   22   23 ar
  43   22   49 1
  44   23   24 ar
  45   23   50 1
  46   24   51 1
  47   25   30 ar
  48   25   52 1
  49   27   28 ar
  50   27   53 1
  51   28   29 ar
  52   28   54 1
  53   29   30 ar
  54   29   31 ar
  55   30   34 ar
  56   31   32 ar
  57   31   55 1
  58   32   33 ar
  59   32   56 1
  60   33   34 ar
  61   33   57 1
  62   34   58 1

#	End of record

