#	Name: ASD08178082
#	Creating user name:	WinNT
#	Creation time:	15. 06. 2019 21:18

#	Modifying user name:	WinNT
#	Modification time:	15. 06. 2019 21:18

#	Program:	/corina/corina34_cracker 3.40 0067  02.08.2006

@<TRIPOS>MOLECULE
ASD08178082
  87   92    0    0    0
SMALL
NO_CHARGES


@<TRIPOS>ATOM
   1 N1             2.6761     1.6730     1.2908 N.2     
   2 N2             2.9008     0.4359     1.4051 N.2     
   3 C3             3.6998     2.4722     1.2680 C.2     
   4 S4             5.1289     1.5381     1.4092 S.3     
   5 C5             4.1427     0.0778     1.4895 C.2     
   6 N6             3.6448     3.8567     1.1482 N.am    
   7 C7             2.4529     4.4772     1.0439 C.2     
   8 O8             1.4284     3.8282     1.0544 O.2     
   9 C9             4.6534    -1.3329     1.6309 C.3     
  10 C10            6.2413    -5.5981    -1.3373 C.3     
  11 C11            6.4199    -6.0389    -2.7673 C.2     
  12 N12            7.4937    -5.9056    -3.4793 N.2     
  13 S13            5.2068    -6.8359    -3.7696 S.3     
  14 C14            6.3320    -6.8823    -5.0605 C.2     
  15 N15            7.4440    -6.3413    -4.6632 N.2     
  16 N16            6.0956    -7.4152    -6.3232 N.am    
  17 C17            7.0669    -7.3916    -7.2573 C.2     
  18 O18            8.1471    -6.9056    -6.9967 O.2     
  19 C19            6.8107    -7.9691    -8.6254 C.3     
  20 C20            2.3933     5.9774     0.9141 C.3     
  21 C21            4.8889    -1.9316     0.2428 C.3     
  22 C22            5.7186    -4.1604    -1.3083 C.3     
  23 C23            2.4644     6.3589    -0.5421 C.ar    
  24 C24            1.3697     6.1611    -1.3626 C.ar    
  25 C25            1.4349     6.5110    -2.6984 C.ar    
  26 C26            2.5947     7.0591    -3.2135 C.ar    
  27 C27            3.6891     7.2578    -2.3927 C.ar    
  28 C28            3.6224     6.9119    -1.0559 C.ar    
  29 C29            6.2326    -6.9032    -9.5204 C.ar    
  30 C30            4.8925    -6.9362    -9.8579 C.ar    
  31 C31            7.0412    -5.8894    -9.9991 C.ar    
  32 C32            6.5110    -4.9117   -10.8200 C.ar    
  33 C33            5.1722    -4.9482   -11.1625 C.ar    
  34 C34            4.3623    -5.9586   -10.6789 C.ar    
  35 N35            1.1336     6.4689     1.4881 N.3     
  36 C36            1.0548     7.9342     1.4084 C.3     
  37 C37            0.9725     6.0103     2.8750 C.3     
  38 C38           -0.3844     6.4754     3.4089 C.3     
  39 N39           -0.4632     7.9407     3.3292 N.3     
  40 C40           -0.3021     8.3992     1.9423 C.3     
  41 N41            8.0740    -8.4554    -9.1961 N.3     
  42 C42            7.8589    -9.0466   -10.5242 C.3     
  43 C43            9.2059    -9.4676   -11.1164 C.3     
  44 N44            9.8559   -10.4285   -10.2143 N.3     
  45 C45           10.0709    -9.8373    -8.8862 C.3     
  46 C46            8.7239    -9.4163    -8.2940 C.3     
  47 S47            5.5036    -3.6298     0.4130 S.3     
  48 H48            4.4642     4.3757     1.1398 H       
  49 H49            5.5906    -1.3260     2.1874 H       
  50 H50            3.9177    -1.9337     2.1657 H       
  51 H51            5.5264    -6.2546    -0.8413 H       
  52 H52            7.1993    -5.6469    -0.8196 H       
  53 H53            5.2317    -7.8040    -6.5315 H       
  54 H54            6.1062    -8.7968    -8.5444 H       
  55 H55            3.2335     6.4219     1.4476 H       
  56 H56            3.9516    -1.9386    -0.3137 H       
  57 H57            5.6245    -1.3309    -0.2920 H       
  58 H58            6.4335    -3.5039    -1.8043 H       
  59 H59            4.7606    -4.1116    -1.8259 H       
  60 H60            0.4636     5.7328    -0.9602 H       
  61 H61            0.5799     6.3557    -3.3396 H       
  62 H62            2.6459     7.3318    -4.2572 H       
  63 H63            4.5954     7.6858    -2.7952 H       
  64 H64            4.4775     7.0671    -0.4147 H       
  65 H65            4.2599    -7.7260    -9.4806 H       
  66 H66            8.0872    -5.8610    -9.7315 H       
  67 H67            7.1425    -4.1193   -11.1935 H       
  68 H68            4.7579    -4.1841   -11.8036 H       
  69 H69            3.3163    -5.9871   -10.9465 H       
  70 H70            1.8517     8.3743     2.0079 H       
  71 H71            1.1642     8.2483     0.3704 H       
  72 H72            1.0219     4.9219     2.9062 H       
  73 H73            1.7684     6.4286     3.4911 H       
  74 H74           -1.1813     6.0352     2.8094 H       
  75 H75           -0.4938     6.1612     4.4469 H       
  76 H76           -1.3284     8.2782     3.7235 H       
  77 H77           -0.3515     9.4877     1.9111 H       
  78 H78           -1.0980     7.9809     1.3262 H       
  79 H79            7.2128    -9.9198   -10.4332 H       
  80 H80            7.3881    -8.3119   -11.1774 H       
  81 H81            9.0460    -9.9328   -12.0891 H       
  82 H82            9.8422    -8.5903   -11.2327 H       
  83 H83            9.3207   -11.2814   -10.1481 H       
  84 H84           10.5417   -10.5720    -8.2330 H       
  85 H85           10.7170    -8.9642    -8.9772 H       
  86 H86            8.8838    -8.9512    -7.3213 H       
  87 H87            8.0877   -10.2937    -8.1777 H       
@<TRIPOS>BOND
   1    1    2 1
   2    1    3 2
   3    2    5 2
   4    3    4 1
   5    3    6 1
   6    4    5 1
   7    5    9 1
   8    6    7 am
   9    6   48 1
  10    7    8 2
  11    7   20 1
  12    9   21 1
  13    9   49 1
  14    9   50 1
  15   10   11 1
  16   10   22 1
  17   10   51 1
  18   10   52 1
  19   11   12 2
  20   11   13 1
  21   12   15 1
  22   13   14 1
  23   14   15 2
  24   14   16 1
  25   16   17 am
  26   16   53 1
  27   17   18 2
  28   17   19 1
  29   19   41 1
  30   19   29 1
  31   19   54 1
  32   20   35 1
  33   20   23 1
  34   20   55 1
  35   21   47 1
  36   21   56 1
  37   21   57 1
  38   22   47 1
  39   22   58 1
  40   22   59 1
  41   23   24 ar
  42   23   28 ar
  43   24   25 ar
  44   24   60 1
  45   25   26 ar
  46   25   61 1
  47   26   27 ar
  48   26   62 1
  49   27   28 ar
  50   27   63 1
  51   28   64 1
  52   29   30 ar
  53   29   31 ar
  54   30   34 ar
  55   30   65 1
  56   31   32 ar
  57   31   66 1
  58   32   33 ar
  59   32   67 1
  60   33   34 ar
  61   33   68 1
  62   34   69 1
  63   35   36 1
  64   35   37 1
  65   36   40 1
  66   36   70 1
  67   36   71 1
  68   37   38 1
  69   37   72 1
  70   37   73 1
  71   38   39 1
  72   38   74 1
  73   38   75 1
  74   39   40 1
  75   39   76 1
  76   40   77 1
  77   40   78 1
  78   41   42 1
  79   41   46 1
  80   42   43 1
  81   42   79 1
  82   42   80 1
  83   43   44 1
  84   43   81 1
  85   43   82 1
  86   44   45 1
  87   44   83 1
  88   45   46 1
  89   45   84 1
  90   45   85 1
  91   46   86 1
  92   46   87 1

#	End of record

