#	Name: ASD01200042
#	Creating user name:	WinNT
#	Creation time:	15. 06. 2019 19:08

#	Modifying user name:	WinNT
#	Modification time:	15. 06. 2019 19:08

#	Program:	/corina/corina34_cracker 3.40 0067  02.08.2006

@<TRIPOS>MOLECULE
ASD01200042
  38   40    0    0    0
SMALL
NO_CHARGES


@<TRIPOS>ATOM
   1 C1             0.0183     1.2689    -0.0992 C.ar    
   2 C2            -0.0352     0.1431     0.7142 C.ar    
   3 C3            -1.2316    -0.5128     0.9199 C.ar    
   4 C4            -2.3928    -0.0512     0.3140 C.ar    
   5 C5            -2.3453     1.0853    -0.5081 C.ar    
   6 C6            -1.1295     1.7452    -0.7050 C.ar    
   7 C7            -3.5721     1.5832    -1.1558 C.2     
   8 N8            -3.5490     2.7435    -1.8410 N.am    
   9 C9            -4.7051     3.2127    -2.4514 C.2     
  10 N10           -4.7915     4.3128    -3.1320 N.2     
  11 C11           -5.9717     4.6068    -3.6448 C.2     
  12 C12           -6.9278     3.7130    -3.3853 C.2     
  13 S13           -6.2196     2.4200    -2.4207 S.3     
  14 O14           -4.6051     0.9470    -1.0719 O.2     
  15 C15           -6.2195     5.8518    -4.4570 C.3     
  16 O16            1.2028     1.9074    -0.2954 O.3     
  17 N17           -3.5985    -0.7131     0.5208 N.pl3   
  18 C18            1.5506     2.8889     0.5774 C.ar    
  19 C19            2.7443     3.5754     0.4109 C.ar    
  20 C20            3.0957     4.5749     1.3010 C.ar    
  21 C21            2.2563     4.8885     2.3568 C.ar    
  22 C22            1.0665     4.2041     2.5234 C.ar    
  23 C23            0.7092     3.2100     1.6335 C.ar    
  24 F24            4.2580     5.2445     1.1403 F       
  25 H25            0.8648    -0.2205     1.1877 H       
  26 H26           -1.2650    -1.3871     1.5530 H       
  27 H27           -1.0849     2.6206    -1.3360 H       
  28 H28           -2.7251     3.2510    -1.9080 H       
  29 H29           -7.9553     3.7699    -3.7130 H       
  30 H30           -6.0343     5.6413    -5.5104 H       
  31 H31           -7.2536     6.1709    -4.3266 H       
  32 H32           -5.5499     6.6438    -4.1216 H       
  33 H33           -3.6003    -1.6448     0.7906 H       
  34 H34           -4.4377    -0.2430     0.3951 H       
  35 H35            3.3989     3.3299    -0.4123 H       
  36 H36            2.5315     5.6684     3.0513 H       
  37 H37            0.4137     4.4502     3.3478 H       
  38 H38           -0.2204     2.6762     1.7649 H       
@<TRIPOS>BOND
   1    1    2 ar
   2    1   16 1
   3    1    6 ar
   4    2    3 ar
   5    2   25 1
   6    3    4 ar
   7    3   26 1
   8    4    5 ar
   9    4   17 1
  10    5    6 ar
  11    5    7 1
  12    6   27 1
  13    7    8 am
  14    7   14 2
  15    8    9 1
  16    8   28 1
  17    9   10 2
  18    9   13 1
  19   10   11 1
  20   11   12 2
  21   11   15 1
  22   12   13 1
  23   12   29 1
  24   15   30 1
  25   15   31 1
  26   15   32 1
  27   16   18 1
  28   17   33 1
  29   17   34 1
  30   18   19 ar
  31   18   23 ar
  32   19   20 ar
  33   19   35 1
  34   20   21 ar
  35   20   24 1
  36   21   22 ar
  37   21   36 1
  38   22   23 ar
  39   22   37 1
  40   23   38 1

#	End of record

