#	Name: ASD02030691
#	Creating user name:	WinNT
#	Creation time:	15. 06. 2019 20:15

#	Modifying user name:	WinNT
#	Modification time:	15. 06. 2019 20:15

#	Program:	/corina/corina34_cracker 3.40 0067  02.08.2006

@<TRIPOS>MOLECULE
ASD02030691
  31   32    0    0    0
SMALL
NO_CHARGES


@<TRIPOS>ATOM
   1 N1            -0.0169     1.3957     0.0097 N.2     
   2 N2             0.0021    -0.0041     0.0020 N.am    
   3 C3             1.1646    -0.6797    -0.0123 C.2     
   4 N4             2.3448    -0.0325    -0.0200 N.am    
   5 C5             2.3757     1.3164    -0.0131 C.2     
   6 C6             1.1074     2.0610     0.0026 C.2     
   7 O7             1.1494    -1.8958    -0.0178 O.2     
   8 O8             3.4386     1.9089    -0.0192 O.2     
   9 C9            -1.2627    -0.7434     0.0101 C.3     
  10 C10           -1.6892    -1.0085     1.4554 C.3     
  11 C11           -2.9902    -1.7690     1.4637 C.ar    
  12 C12           -2.9861    -3.1470     1.3519 C.ar    
  13 C13           -4.1793    -3.8445     1.3595 C.ar    
  14 C14           -5.3770    -3.1642     1.4794 C.ar    
  15 C15           -5.3810    -1.7867     1.5920 C.ar    
  16 C16           -4.1872    -1.0894     1.5888 C.ar    
  17 C17           -1.6807    -3.8885     1.2212 C.3     
  18 O18            1.1051     3.4197     0.0094 O.3     
  19 H19            3.1737    -0.5362    -0.0303 H       
  20 H20           -2.0303    -0.1556    -0.4933 H       
  21 H21           -1.1322    -1.6923    -0.5101 H       
  22 H22           -0.9215    -1.5962     1.9587 H       
  23 H23           -1.8197    -0.0596     1.9756 H       
  24 H24           -4.1762    -4.9209     1.2714 H       
  25 H25           -6.3094    -3.7092     1.4846 H       
  26 H26           -6.3165    -1.2553     1.6853 H       
  27 H27           -4.1901    -0.0133     1.6806 H       
  28 H28           -1.3106    -4.1501     2.2126 H       
  29 H29           -1.8357    -4.7974     0.6398 H       
  30 H30           -0.9515    -3.2544     0.7169 H       
  31 H31            0.2211     3.8114     0.0197 H       
@<TRIPOS>BOND
   1    1    2 1
   2    1    6 2
   3    2    3 am
   4    2    9 1
   5    3    4 am
   6    3    7 2
   7    4    5 am
   8    4   19 1
   9    5    6 1
  10    5    8 2
  11    6   18 1
  12    9   10 1
  13    9   20 1
  14    9   21 1
  15   10   11 1
  16   10   22 1
  17   10   23 1
  18   11   12 ar
  19   11   16 ar
  20   12   13 ar
  21   12   17 1
  22   13   14 ar
  23   13   24 1
  24   14   15 ar
  25   14   25 1
  26   15   16 ar
  27   15   26 1
  28   16   27 1
  29   17   28 1
  30   17   29 1
  31   17   30 1
  32   18   31 1

#	End of record

