#	Name: ASD03091127
#	Creating user name:	WinNT
#	Creation time:	15. 06. 2019 20:30

#	Modifying user name:	WinNT
#	Modification time:	15. 06. 2019 20:30

#	Program:	/corina/corina34_cracker 3.40 0067  02.08.2006

@<TRIPOS>MOLECULE
ASD03091127
  61   65    0    0    0
SMALL
NO_CHARGES


@<TRIPOS>ATOM
   1 C1            -0.5742     1.5043    -0.2046 C.3     
   2 N2            -0.4506     0.0445    -0.2046 N.am    
   3 C3            -0.2920    -0.6250     0.9788 C.2     
   4 N4            -0.1750    -1.9252     1.0531 N.2     
   5 C5            -0.2039    -2.7034    -0.0479 C.ar    
   6 C6            -0.3647    -2.0980    -1.3152 C.ar    
   7 C7            -0.4994    -0.6348    -1.3742 C.2     
   8 C8            -0.2506     0.1587     2.2313 C.ar    
   9 O9            -0.6408    -0.0557    -2.4356 O.2     
  10 C10           -0.0778    -4.0935     0.0379 C.ar    
  11 C11           -0.1109    -4.8515    -1.0970 C.ar    
  12 C12           -0.2694    -4.2588    -2.3499 C.ar    
  13 C13           -0.3970    -2.8847    -2.4642 C.ar    
  14 N14           -0.3001    -5.0569    -3.4967 N.3     
  15 C15            0.7990     2.1247    -0.1837 C.2     
  16 N16            0.9326     3.4658    -0.1800 N.am    
  17 C17            2.2675     4.0689    -0.1597 C.3     
  18 O18            1.7840     1.4171    -0.1701 O.2     
  19 C19            2.2030     5.4711    -0.7686 C.3     
  20 C20            2.7629     4.1625     1.2849 C.3     
  21 C21            0.2418    -4.3259    -4.6674 C.3     
  22 C22            1.4217    -5.2058    -5.1848 C.3     
  23 N23            2.4823    -5.0450    -4.1406 N.3     
  24 C24            1.9524    -5.6920    -2.9161 C.3     
  25 C25            0.5632    -6.2685    -3.3304 C.3     
  26 C26            2.7747    -3.6254    -3.9015 C.3     
  27 C27            0.8640    -6.6305    -4.8290 C.3     
  28 C28           -1.2909     1.0351     2.5446 C.ar    
  29 C29           -1.2460     1.7636     3.7153 C.ar    
  30 C30           -0.1727     1.6274     4.5777 C.ar    
  31 C31            0.8618     0.7605     4.2732 C.ar    
  32 C32            0.8263     0.0215     3.1088 C.ar    
  33 H33           -1.1038     1.8241    -1.1020 H       
  34 H34           -1.1298     1.8218     0.6778 H       
  35 H35            0.0459    -4.5667     1.0007 H       
  36 H36           -0.0126    -5.9245    -1.0239 H       
  37 H37           -0.5197    -2.4274    -3.4349 H       
  38 H38            0.1448     4.0317    -0.1909 H       
  39 H39            2.9538     3.4521    -0.7399 H       
  40 H40            1.5167     6.0879    -0.1883 H       
  41 H41            3.1962     5.9198    -0.7534 H       
  42 H42            1.8500     5.4044    -1.7977 H       
  43 H43            3.7562     4.6112     1.3000 H       
  44 H44            2.0767     4.7793     1.8651 H       
  45 H45            2.8089     3.1636     1.7186 H       
  46 H46           -0.5223    -4.2262    -5.4383 H       
  47 H47            0.6061    -3.3440    -4.3652 H       
  48 H48            1.7330    -5.0364    -6.2155 H       
  49 H49            2.6154    -6.4956    -2.5955 H       
  50 H50            1.8350    -4.9567    -2.1201 H       
  51 H51            0.1623    -7.0606    -2.6980 H       
  52 H52            1.9204    -3.1555    -3.4143 H       
  53 H53            3.6519    -3.5381    -3.2604 H       
  54 H54            2.9688    -3.1293    -4.8525 H       
  55 H55           -0.0408    -6.8725    -5.3865 H       
  56 H56            1.6223    -7.4078    -4.9234 H       
  57 H57           -2.1289     1.1429     1.8720 H       
  58 H58           -2.0502     2.4420     3.9589 H       
  59 H59           -0.1420     2.2006     5.4926 H       
  60 H60            1.6969     0.6591     4.9505 H       
  61 H61            1.6344    -0.6548     2.8722 H       
@<TRIPOS>BOND
   1    1    2 1
   2    1   15 1
   3    1   33 1
   4    1   34 1
   5    2    3 1
   6    2    7 am
   7    3    4 2
   8    3    8 1
   9    4    5 1
  10    5    6 ar
  11    5   10 ar
  12    6    7 1
  13    6   13 ar
  14    7    9 2
  15    8   28 ar
  16    8   32 ar
  17   10   11 ar
  18   10   35 1
  19   11   12 ar
  20   11   36 1
  21   12   13 ar
  22   12   14 1
  23   13   37 1
  24   14   21 1
  25   14   25 1
  26   15   16 am
  27   15   18 2
  28   16   17 1
  29   16   38 1
  30   17   19 1
  31   17   20 1
  32   17   39 1
  33   19   40 1
  34   19   41 1
  35   19   42 1
  36   20   43 1
  37   20   44 1
  38   20   45 1
  39   21   22 1
  40   21   46 1
  41   21   47 1
  42   22   23 1
  43   22   27 1
  44   22   48 1
  45   23   24 1
  46   23   26 1
  47   24   25 1
  48   24   49 1
  49   24   50 1
  50   25   27 1
  51   25   51 1
  52   26   52 1
  53   26   53 1
  54   26   54 1
  55   27   55 1
  56   27   56 1
  57   28   29 ar
  58   28   57 1
  59   29   30 ar
  60   29   58 1
  61   30   31 ar
  62   30   59 1
  63   31   32 ar
  64   31   60 1
  65   32   61 1

#	End of record

