#	Name: ASD01911218
#	Creating user name:	WinNT
#	Creation time:	15. 06. 2019 19:57

#	Modifying user name:	WinNT
#	Modification time:	15. 06. 2019 19:57

#	Program:	/corina/corina34_cracker 3.40 0067  02.08.2006

@<TRIPOS>MOLECULE
ASD01911218
  43   45    0    0    0
SMALL
NO_CHARGES


@<TRIPOS>ATOM
   1 C1            -0.0187     1.5258     0.0104 C.3     
   2 C2             0.0021    -0.0041     0.0020 C.3     
   3 N3             0.7106    -0.4894     1.1889 N.am    
   4 C4             0.8538    -1.8138     1.3937 C.2     
   5 O5             0.3947    -2.6059     0.5933 O.2     
   6 C6             1.5668    -2.3022     2.5882 C.2     
   7 N7             2.1131    -1.5710     3.5355 N.2     
   8 N8             2.6607    -2.2940     4.4435 N.pl3   
   9 C9             2.5224    -3.6281     4.1707 C.ar    
  10 C10            1.8039    -3.7019     2.9618 C.ar    
  11 C11            1.4985    -4.9467     2.4122 C.ar    
  12 C12            1.9159    -6.0674     3.0805 C.ar    
  13 C13            2.6241    -5.9311     4.2741 C.ar    
  14 N14            2.9006    -4.7442     4.7808 N.ar    
  15 O15            3.0346    -7.0441     4.9318 O.3     
  16 C16            3.7563    -6.8490     6.1497 C.3     
  17 C17            4.1269    -8.1878     6.7340 C.ar    
  18 C18            3.7558    -9.3457     6.0776 C.ar    
  19 C19            4.1017   -10.5725     6.6236 C.ar    
  20 C20            4.8110   -10.5882     7.8146 C.ar    
  21 C21            5.1474    -9.3889     8.4140 C.ar    
  22 N22            4.8063    -8.2405     7.8631 N.ar    
  23 C23            5.9179    -9.3939     9.7091 C.3     
  24 C24            3.3471    -1.7593     5.6221 C.3     
  25 H25            1.0039     1.9031     0.0027 H       
  26 H26           -0.5459     1.8868    -0.8726 H       
  27 H27           -0.5289     1.8773     0.9072 H       
  28 H28           -1.0205    -0.3814     0.0098 H       
  29 H29            0.5123    -0.3556    -0.8948 H       
  30 H30            1.0768     0.1425     1.8273 H       
  31 H31            0.9481    -5.0250     1.4863 H       
  32 H32            1.6978    -7.0489     2.6861 H       
  33 H33            4.6621    -6.2774     5.9476 H       
  34 H34            3.1328    -6.3034     6.8580 H       
  35 H35            3.2030    -9.2959     5.1511 H       
  36 H36            3.8248   -11.4939     6.1329 H       
  37 H37            5.0968   -11.5255     8.2686 H       
  38 H38            6.9868    -9.3803     9.4960 H       
  39 H39            5.6526    -8.5126    10.2931 H       
  40 H40            5.6717   -10.2924    10.2750 H       
  41 H41            2.6324    -1.6417     6.4367 H       
  42 H42            4.1354    -2.4476     5.9269 H       
  43 H43            3.7843    -0.7907     5.3797 H       
@<TRIPOS>BOND
   1    1    2 1
   2    1   25 1
   3    1   26 1
   4    1   27 1
   5    2    3 1
   6    2   28 1
   7    2   29 1
   8    3    4 am
   9    3   30 1
  10    4    5 2
  11    4    6 1
  12    6    7 2
  13    6   10 1
  14    7    8 1
  15    8    9 1
  16    8   24 1
  17    9   10 ar
  18    9   14 ar
  19   10   11 ar
  20   11   12 ar
  21   11   31 1
  22   12   13 ar
  23   12   32 1
  24   13   14 ar
  25   13   15 1
  26   15   16 1
  27   16   17 1
  28   16   33 1
  29   16   34 1
  30   17   18 ar
  31   17   22 ar
  32   18   19 ar
  33   18   35 1
  34   19   20 ar
  35   19   36 1
  36   20   21 ar
  37   20   37 1
  38   21   22 ar
  39   21   23 1
  40   23   38 1
  41   23   39 1
  42   23   40 1
  43   24   41 1
  44   24   42 1
  45   24   43 1

#	End of record

