#	Name: ASD01813957
#	Creating user name:	WinNT
#	Creation time:	15. 06. 2019 19:31

#	Modifying user name:	WinNT
#	Modification time:	15. 06. 2019 19:31

#	Program:	/corina/corina34_cracker 3.40 0067  02.08.2006

@<TRIPOS>MOLECULE
ASD01813957
  65   68    0    0    0
SMALL
NO_CHARGES


@<TRIPOS>ATOM
   1 C1            -0.0173     1.4248     0.0099 C.3     
   2 O2             0.0021    -0.0041     0.0020 O.3     
   3 C3             0.6047    -0.6060    -1.0538 C.ar    
   4 C4            -0.1287    -0.9208    -2.1877 C.ar    
   5 C5            -1.5985    -0.5938    -2.2481 C.3     
   6 C6             0.4862    -1.5333    -3.2620 C.ar    
   7 C7            -0.3166    -1.8717    -4.4916 C.3     
   8 C8             1.8366    -1.8378    -3.2161 C.ar    
   9 C9             2.4952    -2.5062    -4.3953 C.3     
  10 C10            2.9115    -1.4605    -5.3975 C.ar    
  11 C11            2.0338    -1.0730    -6.3939 C.ar    
  12 C12            2.4099    -0.1157    -7.3143 C.ar    
  13 C13            3.6759     0.4608    -7.2382 C.ar    
  14 C14            4.5557     0.0672    -6.2323 C.ar    
  15 C15            4.1676    -0.8875    -5.3141 C.ar    
  16 C16            4.0860     1.4905    -8.2256 C.2     
  17 C17            5.2861     2.1381    -8.2840 C.2     
  18 N18            5.2056     2.9797    -9.3392 N.pl3   
  19 C19            6.2630     3.8862    -9.7936 C.3     
  20 N20            4.0443     2.8498    -9.8773 N.2     
  21 N21            3.3518     1.9687    -9.2462 N.2     
  22 C22            2.5808    -1.5320    -2.0970 C.ar    
  23 C23            1.9728    -0.9074    -1.0057 C.ar    
  24 C24            2.7649    -0.5713     0.1928 C.2     
  25 O25            2.2312    -0.0313     1.1425 O.2     
  26 N26            4.0801    -0.8628     0.2349 N.am    
  27 C27            4.8666    -0.5291     1.4250 C.3     
  28 H28            4.4985     0.4027     1.8543 H       
  29 C29            4.7343    -1.6525     2.4553 C.3     
  30 C30            5.5557    -1.3040     3.6981 C.3     
  31 C31            7.0261    -1.1400     3.3082 C.3     
  32 C32            7.1584    -0.0167     2.2780 C.3     
  33 C33            6.3370    -0.3652     1.0351 C.3     
  34 H34            6.7051    -1.2970     0.6059 H       
  35 O35            6.4605     0.6840     0.0729 O.3     
  36 H36            1.0053     1.8021     0.0021 H       
  37 H37           -0.5445     1.7859    -0.8732 H       
  38 H38           -0.5275     1.7763     0.9067 H       
  39 H39           -1.7316     0.4059    -2.6615 H       
  40 H40           -2.1065    -1.3200    -2.8828 H       
  41 H41           -2.0206    -0.6309    -1.2438 H       
  42 H42           -0.2885    -1.0322    -5.1863 H       
  43 H43            0.1073    -2.7542    -4.9708 H       
  44 H44           -1.3493    -2.0735    -4.2071 H       
  45 H45            3.3739    -3.0557    -4.0574 H       
  46 H46            1.7920    -3.1964    -4.8612 H       
  47 H47            1.0527    -1.5206    -6.4520 H       
  48 H48            1.7241     0.1856    -8.0923 H       
  49 H49            5.5383     0.5108    -6.1690 H       
  50 H50            4.8474    -1.1904    -4.5314 H       
  51 H51            6.1287     2.0055    -7.6216 H       
  52 H52            6.8923     3.3745   -10.5217 H       
  53 H53            5.8140     4.7654   -10.2557 H       
  54 H54            6.8693     4.1933    -8.9414 H       
  55 H55            3.6335    -1.7714    -2.0656 H       
  56 H56            4.5059    -1.2936    -0.5227 H       
  57 H57            3.6868    -1.7693     2.7330 H       
  58 H58            5.1024    -2.5843     2.0260 H       
  59 H59            5.1876    -0.3721     4.1274 H       
  60 H60            5.4615    -2.1043     4.4321 H       
  61 H61            7.6113    -0.8917     4.1937 H       
  62 H62            7.3942    -2.0719     2.8790 H       
  63 H63            6.7902     0.9152     2.7072 H       
  64 H64            8.2059     0.1001     2.0002 H       
  65 H65            7.3680     0.8439    -0.2204 H       
@<TRIPOS>BOND
   1    1    2 1
   2    1   36 1
   3    1   37 1
   4    1   38 1
   5    2    3 1
   6    3   23 ar
   7    3    4 ar
   8    4    5 1
   9    4    6 ar
  10    5   39 1
  11    5   40 1
  12    5   41 1
  13    6    7 1
  14    6    8 ar
  15    7   42 1
  16    7   43 1
  17    7   44 1
  18    8    9 1
  19    8   22 ar
  20    9   10 1
  21    9   45 1
  22    9   46 1
  23   10   15 ar
  24   10   11 ar
  25   11   12 ar
  26   11   47 1
  27   12   13 ar
  28   12   48 1
  29   13   14 ar
  30   13   16 1
  31   14   15 ar
  32   14   49 1
  33   15   50 1
  34   16   21 1
  35   16   17 2
  36   17   18 1
  37   17   51 1
  38   18   19 1
  39   18   20 1
  40   19   52 1
  41   19   53 1
  42   19   54 1
  43   20   21 2
  44   22   23 ar
  45   22   55 1
  46   23   24 1
  47   24   25 2
  48   24   26 am
  49   26   27 1
  50   26   56 1
  51   27   28 1
  52   27   33 1
  53   27   29 1
  54   29   30 1
  55   29   57 1
  56   29   58 1
  57   30   31 1
  58   30   59 1
  59   30   60 1
  60   31   32 1
  61   31   61 1
  62   31   62 1
  63   32   33 1
  64   32   63 1
  65   32   64 1
  66   33   34 1
  67   33   35 1
  68   35   65 1

#	End of record

