#	Name: ASD01001184
#	Creating user name:	WinNT
#	Creation time:	15. 06. 2019 18:55

#	Modifying user name:	WinNT
#	Modification time:	15. 06. 2019 18:55

#	Program:	/corina/corina34_cracker 3.40 0067  02.08.2006

@<TRIPOS>MOLECULE
ASD01001184
  51   54    0    0    0
SMALL
NO_CHARGES


@<TRIPOS>ATOM
   1 C1            -0.0167     1.3780     0.0096 C.ar    
   2 C2             1.2782     2.1489     0.0014 C.3     
   3 C3             1.5829     2.6371    -1.4177 C.3     
   4 N4             1.1589     3.3331     0.8644 N.pl3   
   5 C5             1.5950     1.4600    -2.3892 C.3     
   6 C6             2.9321     3.3516    -1.4237 C.3     
   7 C7             2.0931     4.3663     0.7308 C.ar    
   8 C8             2.7673     0.5322    -2.0566 C.3     
   9 C9             2.9571     4.4131    -0.3522 C.ar    
  10 O10            3.9812     2.4155    -1.1641 O.3     
  11 C11            2.1475     5.3576     1.7049 C.ar    
  12 C12            4.0661     1.3431    -2.1029 C.3     
  13 C13            3.8663     5.4510    -0.4597 C.ar    
  14 C14            3.0583     6.3888     1.5914 C.ar    
  15 C15            3.9169     6.4355     0.5086 C.ar    
  16 C16            4.9098     7.5623     0.3842 C.3     
  17 C17            4.6489     8.3311    -0.9127 C.3     
  18 C18            4.7594     8.5086     1.5771 C.3     
  19 C19            6.3291     6.9914     0.3618 C.3     
  20 C20            0.0021    -0.0041     0.0020 C.ar    
  21 C21           -1.1852    -0.7127     0.0091 C.ar    
  22 C22           -2.3919    -0.0398     0.0238 C.ar    
  23 C23           -2.4119     1.3448     0.0319 C.ar    
  24 C24           -1.2225     2.0532     0.0305 C.ar    
  25 F25           -3.5912     2.0038     0.0462 F       
  26 H26            2.0893     1.5126     0.3555 H       
  27 H27            0.8156     3.3477    -1.7248 H       
  28 H28            0.4433     3.3974     1.5161 H       
  29 H29            0.6592     0.9080    -2.3024 H       
  30 H30            1.7039     1.8315    -3.4082 H       
  31 H31            3.0932     3.8147    -2.3972 H       
  32 H32            2.6319     0.1158    -1.0584 H       
  33 H33            2.8138    -0.2745    -2.7882 H       
  34 H34            1.4765     5.3208     2.5503 H       
  35 H35            4.9071     0.6992    -1.8455 H       
  36 H36            4.2082     1.7467    -3.1054 H       
  37 H37            4.5391     5.4913    -1.3036 H       
  38 H38            3.0999     7.1587     2.3476 H       
  39 H39            3.6377     8.7379    -0.8967 H       
  40 H40            5.3670     9.1462    -1.0026 H       
  41 H41            4.7560     7.6570    -1.7625 H       
  42 H42            4.9453     7.9609     2.5010 H       
  43 H43            5.4776     9.3236     1.4871 H       
  44 H44            3.7483     8.9154     1.5930 H       
  45 H45            6.4362     6.3172    -0.4880 H       
  46 H46            7.0472     7.8064     0.2719 H       
  47 H47            6.5149     6.4437     1.2857 H       
  48 H48            0.9448    -0.5309    -0.0098 H       
  49 H49           -1.1693    -1.7926     0.0028 H       
  50 H50           -3.3192    -0.5935     0.0286 H       
  51 H51           -1.2369     3.1331     0.0368 H       
@<TRIPOS>BOND
   1    1   20 ar
   2    1    2 1
   3    1   24 ar
   4    2    3 1
   5    2    4 1
   6    2   26 1
   7    3    5 1
   8    3    6 1
   9    3   27 1
  10    4    7 1
  11    4   28 1
  12    5    8 1
  13    5   29 1
  14    5   30 1
  15    6    9 1
  16    6   10 1
  17    6   31 1
  18    7    9 ar
  19    7   11 ar
  20    8   12 1
  21    8   32 1
  22    8   33 1
  23    9   13 ar
  24   10   12 1
  25   11   14 ar
  26   11   34 1
  27   12   35 1
  28   12   36 1
  29   13   15 ar
  30   13   37 1
  31   14   15 ar
  32   14   38 1
  33   15   16 1
  34   16   17 1
  35   16   18 1
  36   16   19 1
  37   17   39 1
  38   17   40 1
  39   17   41 1
  40   18   42 1
  41   18   43 1
  42   18   44 1
  43   19   45 1
  44   19   46 1
  45   19   47 1
  46   20   21 ar
  47   20   48 1
  48   21   22 ar
  49   21   49 1
  50   22   23 ar
  51   22   50 1
  52   23   24 ar
  53   23   25 1
  54   24   51 1

#	End of record

