#	Name: ASD04840025
#	Creating user name:	WinNT
#	Creation time:	15. 06. 2019 20:52

#	Modifying user name:	WinNT
#	Modification time:	15. 06. 2019 20:52

#	Program:	/corina/corina34_cracker 3.40 0067  02.08.2006

@<TRIPOS>MOLECULE
ASD04840025
  71   75    0    0    0
SMALL
NO_CHARGES


@<TRIPOS>ATOM
   1 C1            -0.4940     3.1204     0.5215 C.2     
   2 C2            -0.2007     1.7408     0.4204 C.2     
   3 C3            -1.2134     0.8338     0.3697 C.2     
   4 C4            -2.5587     1.2698     0.4171 C.2     
   5 C5            -2.8479     2.6528     0.4419 C.2     
   6 C6            -1.8332     3.5551     0.5170 C.2     
   7 C7            -3.6064     0.3481     0.4346 C.2     
   8 C8            -4.9343     0.7852     0.5335 C.2     
   9 C9            -5.2714     2.0786     0.5311 C.2     
  10 C10           -4.2632     3.1710     0.3461 C.3     
  11 C11           -6.7415     2.4403     0.7575 C.3     
  12 C12           -6.7449     3.4441     1.9056 C.3     
  13 C13           -5.9331     4.6760     1.5180 C.3     
  14 C14           -4.4582     4.3096     1.3412 C.3     
  15 C15           -7.5192     1.1939     1.1499 C.3     
  16 C16           -8.8603     1.4515     1.8189 C.3     
  17 C17           -9.2606     2.9079     1.9566 C.3     
  18 C18           -8.1107     3.7664     2.4486 C.3     
  19 C19          -10.3373     3.0338     3.0675 C.3     
  20 C20          -10.8116     4.4809     3.1367 C.3     
  21 C21           -9.6809     5.4799     3.3575 C.3     
  22 C22           -8.4960     5.2375     2.4148 C.3     
  23 O23            0.4128     3.9363     0.6063 O.2     
  24 O24            1.0914     1.3176     0.3707 O.3     
  25 C25           -0.8729    -0.6300     0.2582 C.3     
  26 C26           -4.3658     3.7530    -1.0713 C.3     
  27 C27           -7.2788     3.0037    -0.5544 C.3     
  28 C28           -5.9819     2.7713     3.0850 C.3     
  29 C29           -9.9307     3.4156     0.6833 C.3     
  30 C30          -10.2251     6.8933     3.0777 C.3     
  31 C31           -9.2204     5.4343     4.7915 C.2     
  32 O32           -8.0751     5.1485     5.0495 O.2     
  33 O33          -10.0825     5.7112     5.7824 O.3     
  34 H34           -2.0483     4.6117     0.5767 H       
  35 H35           -3.4227    -0.7133     0.3712 H       
  36 H36           -5.7075     0.0337     0.5944 H       
  37 H37           -6.3233     5.1393     0.6201 H       
  38 H38           -5.9987     5.4069     2.3365 H       
  39 H39           -3.9856     4.0785     2.2905 H       
  40 H40           -3.9409     5.2009     0.9423 H       
  41 H41           -7.6927     0.5935     0.2404 H       
  42 H42           -6.9069     0.5713     1.8177 H       
  43 H43           -9.6450     0.9214     1.2545 H       
  44 H44           -8.8476     0.9934     2.8213 H       
  45 H45           -8.0287     3.5110     3.5488 H       
  46 H46          -11.1686     2.3798     2.8084 H       
  47 H47           -9.8991     2.7262     4.0113 H       
  48 H48          -11.3890     4.7539     2.2559 H       
  49 H49          -11.5055     4.5658     3.9938 H       
  50 H50           -7.6546     5.8419     2.7797 H       
  51 H51           -8.7388     5.5720     1.4130 H       
  52 H52            1.7412     2.0326     0.4105 H       
  53 H53            0.2102    -0.7503     0.2333 H       
  54 H54           -1.2780    -1.1638     1.1180 H       
  55 H55           -1.3046    -1.0348    -0.6571 H       
  56 H56           -5.3758     4.1276    -1.2380 H       
  57 H57           -3.6526     4.5699    -1.1811 H       
  58 H58           -4.1419     2.9747    -1.8007 H       
  59 H59           -6.7150     2.5846    -1.3878 H       
  60 H60           -8.3314     2.7404    -0.6589 H       
  61 H61           -7.1741     4.0887    -0.5540 H       
  62 H62           -4.9633     2.5396     2.7736 H       
  63 H63           -5.9558     3.4517     3.9361 H       
  64 H64           -6.4925     1.8516     3.3705 H       
  65 H65          -10.4751     2.5991     0.2089 H       
  66 H66          -10.6246     4.2182     0.9332 H       
  67 H67           -9.1710     3.7922    -0.0017 H       
  68 H68          -11.0505     7.1059     3.7572 H       
  69 H69           -9.4316     7.6249     3.2299 H       
  70 H70          -10.5785     6.9494     2.0481 H       
  71 H71           -9.7409     5.6690     6.6861 H       
@<TRIPOS>BOND
   1    1    2 1
   2    1   23 2
   3    1    6 1
   4    2    3 2
   5    2   24 1
   6    3    4 1
   7    3   25 1
   8    4    5 1
   9    4    7 2
  10    5    6 2
  11    5   10 1
  12    6   34 1
  13    7    8 1
  14    7   35 1
  15    8    9 2
  16    8   36 1
  17    9   10 1
  18    9   11 1
  19   10   26 1
  20   10   14 1
  21   11   12 1
  22   11   15 1
  23   11   27 1
  24   12   13 1
  25   12   28 1
  26   12   18 1
  27   13   14 1
  28   13   37 1
  29   13   38 1
  30   14   39 1
  31   14   40 1
  32   15   16 1
  33   15   41 1
  34   15   42 1
  35   16   17 1
  36   16   43 1
  37   16   44 1
  38   17   18 1
  39   17   19 1
  40   17   29 1
  41   18   22 1
  42   18   45 1
  43   19   20 1
  44   19   46 1
  45   19   47 1
  46   20   21 1
  47   20   48 1
  48   20   49 1
  49   21   22 1
  50   21   30 1
  51   21   31 1
  52   22   50 1
  53   22   51 1
  54   24   52 1
  55   25   53 1
  56   25   54 1
  57   25   55 1
  58   26   56 1
  59   26   57 1
  60   26   58 1
  61   27   59 1
  62   27   60 1
  63   27   61 1
  64   28   62 1
  65   28   63 1
  66   28   64 1
  67   29   65 1
  68   29   66 1
  69   29   67 1
  70   30   68 1
  71   30   69 1
  72   30   70 1
  73   31   32 2
  74   31   33 1
  75   33   71 1

#	End of record

