#	Name: ASD01814421
#	Creating user name:	WinNT
#	Creation time:	15. 06. 2019 19:32

#	Modifying user name:	WinNT
#	Modification time:	15. 06. 2019 19:32

#	Program:	/corina/corina34_cracker 3.40 0067  02.08.2006

@<TRIPOS>MOLECULE
ASD01814421
  52   57    0    0    0
SMALL
NO_CHARGES


@<TRIPOS>ATOM
   1 C1            -0.0167     1.3819     0.0096 C.ar    
   2 C2             0.0021    -0.0041     0.0020 C.ar    
   3 C3             1.1970    -0.6936    -0.0127 C.ar    
   4 C4             2.3990     0.0034    -0.0204 C.ar    
   5 C5             2.3751     1.4118    -0.0131 C.ar    
   6 C6             1.1661     2.0940     0.0022 C.ar    
   7 N7             3.6102    -0.6577    -0.0347 N.pl3   
   8 N8             4.7455    -0.0611    -0.0415 N.2     
   9 C9             4.8827     1.2395    -0.0362 C.2     
  10 C10            3.6768     2.1037    -0.0219 C.2     
  11 C11            6.0122     2.1720    -0.0413 C.2     
  12 N12            5.4770     3.4117    -0.0305 N.am    
  13 N13            4.0818     3.3389    -0.0191 N.2     
  14 C14            3.5985    -2.1226    -0.0419 C.3     
  15 C15            3.5818    -2.6178    -1.4652 C.ar    
  16 C16            4.7723    -2.8540    -2.1276 C.ar    
  17 C17            4.7602    -3.3074    -3.4322 C.ar    
  18 C18            3.5509    -3.5265    -4.0783 C.ar    
  19 C19            2.3572    -3.2889    -3.4103 C.ar    
  20 C20            2.3758    -2.8405    -2.1041 C.ar    
  21 O21            7.1978     1.8862    -0.0530 O.2     
  22 C22            6.2156     4.6014    -0.0306 C.ar    
  23 N23            3.5353    -3.9862    -5.4025 N.pl3   
  24 C24            2.4333    -4.2390    -6.1442 C.2     
  25 C25            2.8447    -4.6635    -7.3615 C.2     
  26 C26            4.2439    -4.6707    -7.3649 C.2     
  27 N27            4.6586    -4.2594    -6.1937 N.2     
  28 C28            7.1649     4.8435    -1.0208 C.ar    
  29 C29            7.8705     6.0344    -0.9791 C.ar    
  30 C30            7.6116     6.9380     0.0367 C.ar    
  31 N31            6.7051     6.6780     0.9601 N.ar    
  32 C32            6.0081     5.5593     0.9531 C.ar    
  33 C33            4.9843     5.3118     2.0309 C.3     
  34 Cl34           8.4915     8.4332     0.0976 Cl      
  35 H35           -0.9605     1.9069     0.0170 H       
  36 H36           -0.9294    -0.5505     0.0080 H       
  37 H37            1.1981    -1.7735    -0.0178 H       
  38 H38            1.1510     3.1739     0.0074 H       
  39 H39            4.4902    -2.4956     0.4620 H       
  40 H40            2.7104    -2.4815     0.4781 H       
  41 H41            5.7127    -2.6834    -1.6246 H       
  42 H42            5.6903    -3.4910    -3.9494 H       
  43 H43            1.4150    -3.4581    -3.9104 H       
  44 H44            1.4475    -2.6555    -1.5840 H       
  45 H45            1.4087    -4.1235    -5.8227 H       
  46 H46            2.2059    -4.9467    -8.1849 H       
  47 H47            4.8734    -4.9614    -8.1930 H       
  48 H48            7.3465     4.1200    -1.8018 H       
  49 H49            8.6143     6.2554    -1.7303 H       
  50 H50            4.0186     5.7036     1.7116 H       
  51 H51            4.8996     4.2403     2.2124 H       
  52 H52            5.2942     5.8123     2.9482 H       
@<TRIPOS>BOND
   1    1    2 ar
   2    1    6 ar
   3    1   35 1
   4    2    3 ar
   5    2   36 1
   6    3    4 ar
   7    3   37 1
   8    4    5 ar
   9    4    7 1
  10    5    6 ar
  11    5   10 1
  12    6   38 1
  13    7    8 1
  14    7   14 1
  15    8    9 2
  16    9   10 1
  17    9   11 1
  18   10   13 2
  19   11   12 am
  20   11   21 2
  21   12   13 1
  22   12   22 1
  23   14   15 1
  24   14   39 1
  25   14   40 1
  26   15   16 ar
  27   15   20 ar
  28   16   17 ar
  29   16   41 1
  30   17   18 ar
  31   17   42 1
  32   18   19 ar
  33   18   23 1
  34   19   20 ar
  35   19   43 1
  36   20   44 1
  37   22   28 ar
  38   22   32 ar
  39   23   24 1
  40   23   27 1
  41   24   25 2
  42   24   45 1
  43   25   26 1
  44   25   46 1
  45   26   27 2
  46   26   47 1
  47   28   29 ar
  48   28   48 1
  49   29   30 ar
  50   29   49 1
  51   30   31 ar
  52   30   34 1
  53   31   32 ar
  54   32   33 1
  55   33   50 1
  56   33   51 1
  57   33   52 1

#	End of record

