#	Name: ASD01908092
#	Creating user name:	WinNT
#	Creation time:	15. 06. 2019 19:54

#	Modifying user name:	WinNT
#	Modification time:	15. 06. 2019 19:54

#	Program:	/corina/corina34_cracker 3.40 0067  02.08.2006

@<TRIPOS>MOLECULE
ASD01908092
  31   32    0    0    0
SMALL
NO_CHARGES


@<TRIPOS>ATOM
   1 C1            -0.0144     1.2095     0.0087 C.2     
   2 O2             0.0021    -0.0041     0.0020 O.2     
   3 N3             2.6978     3.6097    -0.0056 N.pl3   
   4 N4             3.4030     2.4013    -0.0183 N.2     
   5 C5             2.5518     1.4135    -0.0147 C.2     
   6 C6             1.2471     1.9609     0.0007 C.2     
   7 C7             1.3842     3.3377     0.0059 C.2     
   8 C8             2.8971    -0.0534    -0.0256 C.3     
   9 F9             4.2840    -0.2068     0.0752 F       
  10 F10            2.2779    -0.6862     1.0577 F       
  11 F11            2.4498    -0.6289    -1.2197 F       
  12 C12            3.2942     4.9478     0.0005 C.3     
  13 C13            4.2502     5.0665     1.1593 C.ar    
  14 C14            5.5802     4.7263     0.9944 C.ar    
  15 C15            6.4586     4.8342     2.0552 C.ar    
  16 C16            6.0052     5.2842     3.2867 C.ar    
  17 C17            4.6703     5.6249     3.4495 C.ar    
  18 C18            3.7971     5.5206     2.3841 C.ar    
  19 O19            6.8673     5.3908     4.3318 O.3     
  20 C20            6.3307     5.8611     5.5700 C.3     
  21 Cl21          -1.5294     2.0569     0.0205 Cl      
  22 H22            0.5816     4.0602     0.0178 H       
  23 H23            3.8330     5.1097    -0.9331 H       
  24 H24            2.5075     5.6957     0.1004 H       
  25 H25            5.9325     4.3757     0.0356 H       
  26 H26            7.4973     4.5681     1.9259 H       
  27 H27            4.3149     5.9754     4.4073 H       
  28 H28            2.7588     5.7902     2.5091 H       
  29 H29            5.9152     6.8590     5.4302 H       
  30 H30            5.5453     5.1842     5.9060 H       
  31 H31            7.1226     5.8988     6.3181 H       
@<TRIPOS>BOND
   1    1    2 2
   2    1    6 1
   3    1   21 1
   4    3    4 1
   5    3    7 1
   6    3   12 1
   7    4    5 2
   8    5    6 1
   9    5    8 1
  10    6    7 2
  11    7   22 1
  12    8    9 1
  13    8   10 1
  14    8   11 1
  15   12   13 1
  16   12   23 1
  17   12   24 1
  18   13   14 ar
  19   13   18 ar
  20   14   15 ar
  21   14   25 1
  22   15   16 ar
  23   15   26 1
  24   16   17 ar
  25   16   19 1
  26   17   18 ar
  27   17   27 1
  28   18   28 1
  29   19   20 1
  30   20   29 1
  31   20   30 1
  32   20   31 1

#	End of record

