#	Name: ASD04560081
#	Creating user name:	WinNT
#	Creation time:	15. 06. 2019 20:49

#	Modifying user name:	WinNT
#	Modification time:	15. 06. 2019 20:49

#	Program:	/corina/corina34_cracker 3.40 0067  02.08.2006

@<TRIPOS>MOLECULE
ASD04560081
  57   61    0    0    0
SMALL
NO_CHARGES


@<TRIPOS>ATOM
   1 C1            -0.0173     1.3666     0.0244 C.ar    
   2 C2             0.0010    -0.0041     0.0240 C.ar    
   3 C3             1.2157    -0.6859     0.0136 C.ar    
   4 C4             2.4151     0.0225     0.0034 C.ar    
   5 C5             2.4031     1.3933     0.0042 C.ar    
   6 C6             1.1852     2.0805     0.0143 C.ar    
   7 C7             1.1690     3.5549     0.0146 C.2     
   8 O8             2.2154     4.1746     0.0062 O.2     
   9 N9            -0.0055     4.2159     0.0243 N.am    
  10 C10           -0.0226     5.6108     0.1376 C.ar    
  11 C11           -0.9920     6.3506    -0.5268 C.ar    
  12 C12            0.9074     7.6331     1.0301 C.ar    
  13 C13            0.9263     6.2566     0.9193 C.ar    
  14 S14            1.2351    -2.4478     0.0137 S.3     
  15 C15           -1.0073     7.7269    -0.4133 C.ar    
  16 C16           -0.0567     8.3693     0.3621 C.ar    
  17 C17            3.0069    -2.8364    -0.0017 C.3     
  18 C18            3.1932    -4.3318    -0.0030 C.2     
  19 F19           -0.0734     9.7157     0.4718 F       
  20 N20            3.2805    -5.1115    -1.1241 N.am    
  21 C21            3.4488    -6.4301    -0.7654 C.ar    
  22 C22            3.4677    -6.4785     0.6407 C.ar    
  23 C23            3.3039    -5.0955     1.0954 C.2     
  24 C24            3.5893    -7.6092    -1.4896 C.ar    
  25 C25            3.7448    -8.8061    -0.8250 C.ar    
  26 C26            3.7623    -8.8485     0.5622 C.ar    
  27 C27            3.6267    -7.7020     1.2935 C.ar    
  28 S28            3.1964    -4.5523    -2.6806 S.o2    
  29 O29            2.7778    -5.6505    -3.4794 O.2     
  30 O30            2.4938    -3.3184    -2.6263 O.2     
  31 C31            4.8398    -4.1673    -3.1861 C.ar    
  32 C32            5.6206    -5.1332    -3.7929 C.ar    
  33 C33            5.3465    -2.8976    -2.9808 C.ar    
  34 C34            6.6358    -2.5955    -3.3774 C.ar    
  35 C35            7.4187    -3.5632    -3.9787 C.ar    
  36 C36            6.9099    -4.8312    -4.1894 C.ar    
  37 H37           -0.9594     1.8947     0.0280 H       
  38 H38           -0.9274    -0.5560     0.0322 H       
  39 H39            3.3553    -0.5088    -0.0047 H       
  40 H40            3.3333     1.9420    -0.0029 H       
  41 H41           -0.8390     3.7249    -0.0472 H       
  42 H42           -1.7331     5.8500    -1.1322 H       
  43 H43            1.6452     8.1357     1.6379 H       
  44 H44            1.6784     5.6828     1.4404 H       
  45 H45           -1.7610     8.3026    -0.9299 H       
  46 H46            3.4641    -2.4125    -0.8957 H       
  47 H47            3.4796    -2.4122     0.8841 H       
  48 H48            3.2720    -4.7557     2.1200 H       
  49 H49            3.5763    -7.5867    -2.5693 H       
  50 H50            3.8537    -9.7206    -1.3891 H       
  51 H51            3.8847    -9.7950     1.0677 H       
  52 H52            3.6417    -7.7427     2.3726 H       
  53 H53            5.2233    -6.1240    -3.9570 H       
  54 H54            4.7349    -2.1416    -2.5110 H       
  55 H55            7.0315    -1.6033    -3.2176 H       
  56 H56            8.4259    -3.3271    -4.2889 H       
  57 H57            7.5215    -5.5872    -4.6593 H       
@<TRIPOS>BOND
   1    1    2 ar
   2    1    6 ar
   3    1   37 1
   4    2    3 ar
   5    2   38 1
   6    3    4 ar
   7    3   14 1
   8    4    5 ar
   9    4   39 1
  10    5    6 ar
  11    5   40 1
  12    6    7 1
  13    7    8 2
  14    7    9 am
  15    9   10 1
  16    9   41 1
  17   10   11 ar
  18   10   13 ar
  19   11   15 ar
  20   11   42 1
  21   12   13 ar
  22   12   16 ar
  23   12   43 1
  24   13   44 1
  25   14   17 1
  26   15   16 ar
  27   15   45 1
  28   16   19 1
  29   17   18 1
  30   17   46 1
  31   17   47 1
  32   18   20 1
  33   18   23 2
  34   20   21 1
  35   20   28 am
  36   21   22 ar
  37   21   24 ar
  38   22   23 1
  39   22   27 ar
  40   23   48 1
  41   24   25 ar
  42   24   49 1
  43   25   26 ar
  44   25   50 1
  45   26   27 ar
  46   26   51 1
  47   27   52 1
  48   28   29 2
  49   28   30 2
  50   28   31 1
  51   31   32 ar
  52   31   33 ar
  53   32   36 ar
  54   32   53 1
  55   33   34 ar
  56   33   54 1
  57   34   35 ar
  58   34   55 1
  59   35   36 ar
  60   35   56 1
  61   36   57 1

#	End of record

