#	Name: ASD01917602
#	Creating user name:	WinNT
#	Creation time:	15. 06. 2019 20:09

#	Modifying user name:	WinNT
#	Modification time:	15. 06. 2019 20:09

#	Program:	/corina/corina34_cracker 3.40 0067  02.08.2006

@<TRIPOS>MOLECULE
ASD01917602
  27   28    0    0    0
SMALL
NO_CHARGES


@<TRIPOS>ATOM
   1 C1            -0.0187     1.5258     0.0104 C.3     
   2 C2             0.0021    -0.0041     0.0020 C.3     
   3 C3             0.7182    -0.4975    -1.2568 C.3     
   4 O4             1.3220     2.0204     0.0003 O.3     
   5 C5             0.7421    -0.5109     1.2415 C.3     
   6 C6            -3.5809    -0.5502     0.0333 C.2     
   7 C7            -4.9598    -0.2729     0.0476 C.2     
   8 C8            -5.8469    -1.3062     0.0501 C.2     
   9 C9            -5.3731    -2.6269     0.0384 C.2     
  10 C10           -4.0433    -2.8725     0.0248 C.2     
  11 N11           -3.1509    -1.8469     0.0222 N.pl3   
  12 N12           -1.7499    -1.7939     0.0091 N.2     
  13 C13           -1.4117    -0.5257     0.0127 C.2     
  14 N14           -2.5028     0.2261     0.0223 N.2     
  15 I15           -6.7299    -4.2231     0.0429 I       
  16 H16           -0.5459     1.8868    -0.8726 H       
  17 H17           -0.5289     1.8773     0.9072 H       
  18 H18            1.7408    -0.1202    -1.2645 H       
  19 H19            0.7330    -1.5874    -1.2628 H       
  20 H20            0.1910    -0.1364    -2.1398 H       
  21 H21            1.3852     2.9853     0.0049 H       
  22 H22            0.2319    -0.1594     2.1383 H       
  23 H23            0.7568    -1.6008     1.2356 H       
  24 H24            1.7647    -0.1336     1.2338 H       
  25 H25           -5.3112     0.7483     0.0568 H       
  26 H26           -6.9089    -1.1102     0.0613 H       
  27 H27           -3.6872    -3.8921     0.0163 H       
@<TRIPOS>BOND
   1    1    2 1
   2    1    4 1
   3    1   16 1
   4    1   17 1
   5    2    3 1
   6    2    5 1
   7    2   13 1
   8    3   18 1
   9    3   19 1
  10    3   20 1
  11    4   21 1
  12    5   22 1
  13    5   23 1
  14    5   24 1
  15    6    7 1
  16    6   11 1
  17    6   14 2
  18    7    8 2
  19    7   25 1
  20    8    9 1
  21    8   26 1
  22    9   10 2
  23    9   15 1
  24   10   11 1
  25   10   27 1
  26   11   12 1
  27   12   13 2
  28   13   14 1

#	End of record

