#	Name: ASD07301097
#	Creating user name:	WinNT
#	Creation time:	15. 06. 2019 21:10

#	Modifying user name:	WinNT
#	Modification time:	15. 06. 2019 21:10

#	Program:	/corina/corina34_cracker 3.40 0067  02.08.2006

@<TRIPOS>MOLECULE
ASD07301097
  28   29    0    0    0
SMALL
NO_CHARGES


@<TRIPOS>ATOM
   1 C1            -0.0178     1.4651     0.0101 C.2     
   2 C2             0.0021    -0.0041     0.0020 C.2     
   3 C3             1.2770    -0.6367    -0.0136 C.2     
   4 C4             2.3783     0.1589    -0.0198 C.2     
   5 N5             2.2580     1.5099    -0.0109 N.pl3   
   6 N6             1.1288     2.1161     0.0026 N.2     
   7 C7            -1.2973     2.1985     0.0202 C.2     
   8 O8            -2.3477     1.5877     0.0218 O.2     
   9 O9            -1.3016     3.5460     0.0275 O.3     
  10 O10           -1.0316    -0.6549     0.0088 O.2     
  11 O11            1.3890    -1.9916    -0.0215 O.3     
  12 C12            2.7113    -2.5332    -0.0370 C.3     
  13 C13            3.4255     2.2806    -0.0175 C.ar    
  14 C14            3.6360     3.2355     0.9726 C.ar    
  15 C15            4.7911     3.9955     0.9638 C.ar    
  16 C16            5.7371     3.8072    -0.0281 C.ar    
  17 C17            5.5302     2.8571    -1.0153 C.ar    
  18 C18            4.3791     2.0903    -1.0087 C.ar    
  19 F19            6.4559     2.6763    -1.9826 F       
  20 F20            2.7125     3.4202     1.9412 F       
  21 Br21           7.3152     4.8490    -0.0370 Br      
  22 H22            3.3608    -0.2895    -0.0316 H       
  23 H23           -2.1645     3.9823     0.0340 H       
  24 H24            3.2509    -2.1999     0.8494 H       
  25 H25            2.6580    -3.6219    -0.0420 H       
  26 H26            3.2336    -2.1909    -0.9304 H       
  27 H27            4.9549     4.7370     1.7317 H       
  28 H28            4.2203     1.3470    -1.7760 H       
@<TRIPOS>BOND
   1    1    2 1
   2    1    6 2
   3    1    7 1
   4    2    3 1
   5    2   10 2
   6    3    4 2
   7    3   11 1
   8    4    5 1
   9    4   22 1
  10    5    6 1
  11    5   13 1
  12    7    8 2
  13    7    9 1
  14    9   23 1
  15   11   12 1
  16   12   24 1
  17   12   25 1
  18   12   26 1
  19   13   14 ar
  20   13   18 ar
  21   14   15 ar
  22   14   20 1
  23   15   16 ar
  24   15   27 1
  25   16   17 ar
  26   16   21 1
  27   17   18 ar
  28   17   19 1
  29   18   28 1

#	End of record

