#	Name: ASD03082005
#	Creating user name:	WinNT
#	Creation time:	15. 06. 2019 20:27

#	Modifying user name:	WinNT
#	Modification time:	15. 06. 2019 20:27

#	Program:	/corina/corina34_cracker 3.40 0067  02.08.2006

@<TRIPOS>MOLECULE
ASD03082005
  42   43    0    0    0
SMALL
NO_CHARGES


@<TRIPOS>ATOM
   1 C1             0.3925     0.5377    -1.3050 C.ar    
   2 C2             0.5246    -0.7937    -0.9361 C.ar    
   3 C3             1.7186    -1.2705    -0.4406 C.ar    
   4 C4             2.8040    -0.4110    -0.3082 C.ar    
   5 C5             2.6651     0.9378    -0.6841 C.ar    
   6 C6             1.4460     1.3996    -1.1834 C.ar    
   7 N7             4.0951    -0.5764     0.1409 N.pl3   
   8 C8             4.7707     0.6109     0.0625 C.2     
   9 C9             3.9638     1.5652    -0.4276 C.2     
  10 C10            4.3253     3.0082    -0.6683 C.3     
  11 C11            4.7171     3.1980    -2.1351 C.3     
  12 C12            6.2077     0.8169     0.4669 C.3     
  13 C13            6.8314    -0.5303     0.8373 C.3     
  14 C14            8.2903    -0.3211     1.2479 C.3     
  15 C15            6.9823     1.4341    -0.6992 C.3     
  16 C16            6.2684     1.7559     1.6734 C.3     
  17 N17            5.0404     4.6105    -2.3767 N.3     
  18 C18            5.4220     4.8309    -3.7781 C.3     
  19 H19           -0.5491     0.8944    -1.6955 H       
  20 H20           -0.3171    -1.4628    -1.0381 H       
  21 H21            1.8113    -2.3081    -0.1556 H       
  22 H22            1.3360     2.4342    -1.4728 H       
  23 H23            4.4697    -1.4104     0.4650 H       
  24 H24            3.4687     3.6410    -0.4362 H       
  25 H25            5.1644     3.2840    -0.0295 H       
  26 H26            5.5875     2.5822    -2.3613 H       
  27 H27            3.8858     2.9010    -2.7745 H       
  28 H28            6.2795    -0.9700     1.6681 H       
  29 H29            6.7881    -1.1992    -0.0222 H       
  30 H30            8.3336     0.3478     2.1074 H       
  31 H31            8.7346    -1.2809     1.5118 H       
  32 H32            8.8422     0.1186     0.4171 H       
  33 H33            6.6547     2.4628    -0.8490 H       
  34 H34            8.0487     1.4215    -0.4742 H       
  35 H35            6.7953     0.8576    -1.6052 H       
  36 H36            5.7994     1.2752     2.5319 H       
  37 H37            7.3091     1.9810     1.9066 H       
  38 H38            5.7399     2.6805     1.4411 H       
  39 H39            4.2711     5.2077    -2.1132 H       
  40 H40            6.2973     4.2263    -4.0157 H       
  41 H41            4.5956     4.5452    -4.4289 H       
  42 H42            5.6562     5.8846    -3.9294 H       
@<TRIPOS>BOND
   1    1    2 ar
   2    1    6 ar
   3    1   19 1
   4    2    3 ar
   5    2   20 1
   6    3    4 ar
   7    3   21 1
   8    4    5 ar
   9    4    7 1
  10    5    6 ar
  11    5    9 1
  12    6   22 1
  13    7    8 1
  14    7   23 1
  15    8    9 2
  16    8   12 1
  17    9   10 1
  18   10   11 1
  19   10   24 1
  20   10   25 1
  21   11   17 1
  22   11   26 1
  23   11   27 1
  24   12   13 1
  25   12   15 1
  26   12   16 1
  27   13   14 1
  28   13   28 1
  29   13   29 1
  30   14   30 1
  31   14   31 1
  32   14   32 1
  33   15   33 1
  34   15   34 1
  35   15   35 1
  36   16   36 1
  37   16   37 1
  38   16   38 1
  39   17   18 1
  40   17   39 1
  41   18   40 1
  42   18   41 1
  43   18   42 1

#	End of record

