#	Name: ASD09116015
#	Creating user name:	WinNT
#	Creation time:	15. 06. 2019 21:20

#	Modifying user name:	WinNT
#	Modification time:	15. 06. 2019 21:20

#	Program:	/corina/corina34_cracker 3.40 0067  02.08.2006

@<TRIPOS>MOLECULE
ASD09116015
  93   99    0    0    0
SMALL
NO_CHARGES


@<TRIPOS>ATOM
   1 C1             1.8385     1.7158     3.5522 C.ar    
   2 C2             0.6719     1.2070     4.0858 C.ar    
   3 C3            -0.5605     1.6371     3.5970 C.ar    
   4 C4            -0.6069     2.5794     2.5710 C.ar    
   5 C5             0.5661     3.0813     2.0451 C.ar    
   6 C6             1.7864     2.6508     2.5341 C.ar    
   7 C7            -1.8176     1.0937     4.1659 C.ar    
   8 C8            -2.0189    -0.2857     4.3091 C.ar    
   9 C9            -3.2116    -0.7483     4.8465 C.ar    
  10 N10           -4.1705     0.0907     5.2294 N.ar    
  11 C11           -4.0152     1.3774     5.1100 C.ar    
  12 C12           -2.8427     1.9291     4.5847 C.ar    
  13 C13           -5.0323     2.4309     5.5093 C.3     
  14 C14           -4.3156     3.3615     6.5092 C.3     
  15 C15           -3.0131     3.8693     5.8868 C.3     
  16 N16           -2.8434     3.3272     4.5287 N.3     
  17 N17           -3.4101    -2.1254     4.9881 N.pl3   
  18 N18           -2.7951    -3.1448     4.2435 N.2     
  19 C19           -3.2607    -4.2840     4.6967 C.2     
  20 N20           -4.1318    -4.0378     5.6821 N.2     
  21 C21           -4.2284    -2.7394     5.8738 C.2     
  22 N22           -2.9054    -5.5489     4.2267 N.pl3   
  23 C23           -3.3912    -6.6932     4.8648 C.ar    
  24 C24           -3.6113    -7.8557     4.1363 C.ar    
  25 C25           -3.6497    -6.6720     6.2301 C.ar    
  26 C26           -4.1297    -7.8102     6.8513 C.ar    
  27 C27           -4.3510    -8.9541     6.1285 C.ar    
  28 C28           -4.0916    -8.9861     4.7687 C.ar    
  29 N29           -5.0315    -2.1130     6.8083 N.pl3   
  30 C30           -3.9673     3.7799     3.6856 C.3     
  31 C31           -5.2991     3.2712     4.2435 C.3     
  32 C32           -4.4087    -7.7850     8.3399 C.3     
  33 C33           -5.9242    -7.8291     8.5499 C.3     
  34 C34           -6.4299    -9.2582     8.5491 C.3     
  35 C35           -6.3367    -9.9552     7.2061 C.3     
  36 C36           -4.8764   -10.1977     6.8156 C.3     
  37 N37           -7.8355    -9.2553     8.9760 N.3     
  38 C38           -8.3658   -10.6232     9.0508 C.3     
  39 C39           -9.8518   -10.5751     9.4118 C.3     
  40 C40          -10.6279    -9.8869     8.2872 C.3     
  41 C41          -10.3780   -11.9998     9.5970 C.3     
  42 C42           -7.9945    -8.5582    10.2593 C.3     
  43 C43           -7.3187    -9.3687    11.3671 C.3     
  44 C44           -5.8342    -9.0042    11.4327 C.3     
  45 C45           -7.9818    -9.0505    12.7088 C.3     
  46 H46            2.7939     1.3867     3.9333 H       
  47 H47            0.7137     0.4768     4.8804 H       
  48 H48           -1.5591     2.9159     2.1882 H       
  49 H49            0.5314     3.8112     1.2498 H       
  50 H50            2.7018     3.0465     2.1198 H       
  51 H51           -1.2525    -0.9826     4.0035 H       
  52 H52           -5.9390     1.9938     5.9274 H       
  53 H53           -4.9605     4.2082     6.7443 H       
  54 H54           -4.0914     2.8103     7.4225 H       
  55 H55           -3.0371     4.9580     5.8403 H       
  56 H56           -2.1723     3.5547     6.5051 H       
  57 H57           -2.3212    -5.6338     3.4570 H       
  58 H58           -3.4072    -7.8755     3.0759 H       
  59 H59           -3.4764    -5.7725     6.8023 H       
  60 H60           -4.2680    -9.8897     4.2041 H       
  61 H61           -5.5924    -2.6412     7.3977 H       
  62 H62           -5.0342    -1.1453     6.8746 H       
  63 H63           -3.9827     4.8696     3.6614 H       
  64 H64           -3.8330     3.4001     2.6728 H       
  65 H65           -5.7959     2.6536     3.4953 H       
  66 H66           -5.9363     4.1184     4.4972 H       
  67 H67           -3.9478    -8.6517     8.8137 H       
  68 H68           -4.0054    -6.8695     8.7727 H       
  69 H69           -6.1671    -7.3637     9.5052 H       
  70 H70           -6.4132    -7.2756     7.7482 H       
  71 H71           -5.8527    -9.8296     9.2760 H       
  72 H72           -6.8560   -10.9119     7.2624 H       
  73 H73           -6.8124    -9.3346     6.4467 H       
  74 H74           -4.8155   -11.0462     6.1342 H       
  75 H75           -4.2867   -10.3992     7.7099 H       
  76 H76           -8.2421   -11.1141     8.0855 H       
  77 H77           -7.8242   -11.1816     9.8143 H       
  78 H78           -9.9826   -10.0162    10.3384 H       
  79 H79          -11.6865    -9.8526     8.5444 H       
  80 H80          -10.2530    -8.8719     8.1553 H       
  81 H81          -10.4970   -10.4458     7.3606 H       
  82 H82           -9.8251   -12.4901    10.3982 H       
  83 H83          -11.4367   -11.9655     9.8542 H       
  84 H84          -10.2472   -12.5587     8.6704 H       
  85 H85           -7.5329    -7.5727    10.1970 H       
  86 H86           -9.0553    -8.4490    10.4845 H       
  87 H87           -7.4225   -10.4326    11.1538 H       
  88 H88           -5.7302    -7.9466    11.6751 H       
  89 H89           -5.3467    -9.6029    12.2021 H       
  90 H90           -5.3682    -9.2034    10.4677 H       
  91 H91           -9.0394    -9.3102    12.6620 H       
  92 H92           -7.5004    -9.6280    13.4980 H       
  93 H93           -7.8780    -7.9866    12.9221 H       
@<TRIPOS>BOND
   1    1    2 ar
   2    1    6 ar
   3    1   46 1
   4    2    3 ar
   5    2   47 1
   6    3    4 ar
   7    3    7 1
   8    4    5 ar
   9    4   48 1
  10    5    6 ar
  11    5   49 1
  12    6   50 1
  13    7    8 ar
  14    7   12 ar
  15    8    9 ar
  16    8   51 1
  17    9   10 ar
  18    9   17 1
  19   10   11 ar
  20   11   12 ar
  21   11   13 1
  22   12   16 1
  23   13   14 1
  24   13   31 1
  25   13   52 1
  26   14   15 1
  27   14   53 1
  28   14   54 1
  29   15   16 1
  30   15   55 1
  31   15   56 1
  32   16   30 1
  33   17   18 1
  34   17   21 1
  35   18   19 2
  36   19   20 1
  37   19   22 1
  38   20   21 2
  39   21   29 1
  40   22   23 1
  41   22   57 1
  42   23   24 ar
  43   23   25 ar
  44   24   28 ar
  45   24   58 1
  46   25   26 ar
  47   25   59 1
  48   26   27 ar
  49   26   32 1
  50   27   28 ar
  51   27   36 1
  52   28   60 1
  53   29   61 1
  54   29   62 1
  55   30   31 1
  56   30   63 1
  57   30   64 1
  58   31   65 1
  59   31   66 1
  60   32   33 1
  61   32   67 1
  62   32   68 1
  63   33   34 1
  64   33   69 1
  65   33   70 1
  66   34   35 1
  67   34   37 1
  68   34   71 1
  69   35   36 1
  70   35   72 1
  71   35   73 1
  72   36   74 1
  73   36   75 1
  74   37   38 1
  75   37   42 1
  76   38   39 1
  77   38   76 1
  78   38   77 1
  79   39   40 1
  80   39   41 1
  81   39   78 1
  82   40   79 1
  83   40   80 1
  84   40   81 1
  85   41   82 1
  86   41   83 1
  87   41   84 1
  88   42   43 1
  89   42   85 1
  90   42   86 1
  91   43   44 1
  92   43   45 1
  93   43   87 1
  94   44   88 1
  95   44   89 1
  96   44   90 1
  97   45   91 1
  98   45   92 1
  99   45   93 1

#	End of record

