#	Name: ASD05390008
#	Creating user name:	WinNT
#	Creation time:	15. 06. 2019 20:59

#	Modifying user name:	WinNT
#	Modification time:	15. 06. 2019 20:59

#	Program:	/corina/corina34_cracker 3.40 0067  02.08.2006

@<TRIPOS>MOLECULE
ASD05390008
  15   15    0    0    0
SMALL
NO_CHARGES


@<TRIPOS>ATOM
   1 C1            -0.0168     1.3908     0.0097 C.ar    
   2 C2             0.0021    -0.0041     0.0020 C.ar    
   3 N3             1.2395    -2.0729    -0.0214 N.pl3   
   4 C4             1.1860     2.1008     0.0020 C.ar    
   5 C5             2.4061     0.0400    -0.0207 C.ar    
   6 C6            -1.2652     2.0924     0.0194 C.1     
   7 C7             1.2149    -0.6761    -0.0132 C.ar    
   8 C8             2.3873     1.4224    -0.0131 C.ar    
   9 N9            -2.2555     2.6490     0.0271 N.1     
  10 H10           -0.9247    -0.5586     0.0082 H       
  11 H11            0.4082    -2.5726    -0.0164 H       
  12 H12            2.0879    -2.5430    -0.0320 H       
  13 H13            1.1757     3.1807     0.0076 H       
  14 H14            3.3497    -0.4852    -0.0322 H       
  15 H15            3.3163     1.9732    -0.0190 H       
@<TRIPOS>BOND
   1    1    2 ar
   2    1    4 ar
   3    1    6 1
   4    2    7 ar
   5    2   10 1
   6    3   11 1
   7    3   12 1
   8    3    7 1
   9    4    8 ar
  10    4   13 1
  11    5   14 1
  12    5    7 ar
  13    5    8 ar
  14    6    9 3
  15    8   15 1

#	End of record

