#	Name: ASD00450060
#	Creating user name:	WinNT
#	Creation time:	15. 06. 2019 18:36

#	Modifying user name:	WinNT
#	Modification time:	15. 06. 2019 18:36

#	Program:	/corina/corina34_cracker 3.40 0067  02.08.2006

@<TRIPOS>MOLECULE
ASD00450060
  50   52    0    0    0
SMALL
NO_CHARGES


@<TRIPOS>ATOM
   1 C1            -0.6285     1.5315     0.5002 C.ar    
   2 C2            -0.6592     0.1291     0.5464 C.ar    
   3 C3             0.4988    -0.5754     0.8275 C.ar    
   4 C4             1.6866     0.0985     1.0630 C.ar    
   5 C5             1.7292     1.4817     1.0206 C.ar    
   6 C6             0.5807     2.2066     0.7404 C.ar    
   7 C7            -1.8515     2.2889     0.1966 C.2     
   8 O8            -2.5884     2.6412     1.0982 O.2     
   9 N9            -2.1563     2.5930    -1.0805 N.am    
  10 N10            0.6250     3.5946     0.6972 N.pl3   
  11 C11            1.6222     4.2846     1.3949 C.ar    
  12 C12            1.9605     5.5822     1.0257 C.ar    
  13 C13            2.2725     3.6776     2.4610 C.ar    
  14 C14            3.2567     4.3612     3.1482 C.ar    
  15 C15            3.5957     5.6497     2.7758 C.ar    
  16 C16            2.9467     6.2607     1.7179 C.ar    
  17 F17            2.8108    -0.5992     1.3364 F       
  18 F18            1.3269     6.1786    -0.0077 F       
  19 I19            5.0893     6.6811     3.8220 I       
  20 O20           -1.8201    -0.5339     0.3169 O.3     
  21 C21           -1.7961    -1.8921     0.3488 C.ar    
  22 C22           -1.7948    -2.5570     1.5659 C.ar    
  23 C23           -1.7703    -3.9447     1.5982 C.ar    
  24 C24           -1.7787    -2.6134    -0.8357 C.ar    
  25 C25           -1.7547    -3.9999    -0.8041 C.ar    
  26 N26           -1.7694    -4.6151     2.8234 N.am    
  27 C27           -1.7471    -4.6659     0.4116 C.ar    
  28 S28           -3.1556    -4.6923     3.7260 S.o2    
  29 N29           -4.2753    -5.5255     2.8346 N.am    
  30 O30           -2.8557    -5.5038     4.8533 O.2     
  31 O31           -3.6390    -3.3604     3.8337 O.2     
  32 O32           -1.7385    -4.7056    -1.9654 O.3     
  33 C33           -1.7475    -3.9546    -3.1811 C.3     
  34 H34            0.4764    -1.6546     0.8637 H       
  35 H35            2.6596     1.9977     1.2063 H       
  36 H36           -1.5688     2.3121    -1.7994 H       
  37 H37           -2.9632     3.0927    -1.2808 H       
  38 H38           -0.0354     4.0852     0.1833 H       
  39 H39            2.0087     2.6719     2.7531 H       
  40 H40            3.7622     3.8891     3.9777 H       
  41 H41            3.2107     7.2682     1.4323 H       
  42 H42           -1.8125    -1.9954     2.4882 H       
  43 H43           -1.7842    -2.0951    -1.7833 H       
  44 H44           -0.9568    -5.0356     3.1456 H       
  45 H45           -1.7280    -5.7454     0.4359 H       
  46 H46           -4.9997    -5.9922     3.2799 H       
  47 H47           -4.2066    -5.5468     1.8673 H       
  48 H48           -1.7328    -4.6378    -4.0303 H       
  49 H49           -2.6482    -3.3421    -3.2231 H       
  50 H50           -0.8685    -3.3111    -3.2172 H       
@<TRIPOS>BOND
   1    1    2 ar
   2    1    6 ar
   3    1    7 1
   4    2    3 ar
   5    2   20 1
   6    3    4 ar
   7    3   34 1
   8    4    5 ar
   9    4   17 1
  10    5    6 ar
  11    5   35 1
  12    6   10 1
  13    7    8 2
  14    7    9 am
  15    9   36 1
  16    9   37 1
  17   10   11 1
  18   10   38 1
  19   11   13 ar
  20   11   12 ar
  21   12   16 ar
  22   12   18 1
  23   13   14 ar
  24   13   39 1
  25   14   15 ar
  26   14   40 1
  27   15   16 ar
  28   15   19 1
  29   16   41 1
  30   20   21 1
  31   21   22 ar
  32   21   24 ar
  33   22   23 ar
  34   22   42 1
  35   23   27 ar
  36   23   26 1
  37   24   25 ar
  38   24   43 1
  39   25   32 1
  40   25   27 ar
  41   26   28 am
  42   26   44 1
  43   27   45 1
  44   28   29 am
  45   28   30 2
  46   28   31 2
  47   29   46 1
  48   29   47 1
  49   32   33 1
  50   33   48 1
  51   33   49 1
  52   33   50 1

#	End of record

