#	Name: ASD03331741
#	Creating user name:	WinNT
#	Creation time:	15. 06. 2019 20:39

#	Modifying user name:	WinNT
#	Modification time:	15. 06. 2019 20:39

#	Program:	/corina/corina34_cracker 3.40 0067  02.08.2006

@<TRIPOS>MOLECULE
ASD03331741
  44   47    0    0    0
SMALL
NO_CHARGES


@<TRIPOS>ATOM
   1 C1            -0.0270     1.6009    -0.2829 C.ar    
   2 C2            -0.0551     0.2352    -0.3144 C.ar    
   3 C3             1.0649    -0.5015     0.0451 C.ar    
   4 C4             2.2249     0.1294     0.4401 C.ar    
   5 C5             1.1387     2.2620     0.1140 C.ar    
   6 C6             1.5049     3.6700     0.2582 C.2     
   7 C7             2.2774     1.5185     0.4796 C.ar    
   8 N8             3.2643     2.4171     0.8209 N.pl3   
   9 C9             2.7917     3.7020     0.6849 C.2     
  10 C10            0.6210     4.8593    -0.0161 C.3     
  11 C11            3.5681     4.9299     0.9615 C.ar    
  12 C12            0.9495     5.4271    -1.3728 C.ar    
  13 C13           -0.8451     4.4226     0.0126 C.3     
  14 C14            3.5894     5.9694     0.0306 C.ar    
  15 C15            4.2775     5.0555     2.1568 C.ar    
  16 C16            5.0000     6.2028     2.4097 C.ar    
  17 C17            5.0220     7.2299     1.4796 C.ar    
  18 C18            4.3151     7.1124     0.2934 C.ar    
  19 C19            1.5194     7.2969    -2.7555 C.ar    
  20 C20            1.5527     6.4687    -3.8618 C.ar    
  21 C21            1.2780     5.1208    -3.7246 C.ar    
  22 C22            0.9767     4.6000    -2.4801 C.ar    
  23 C23            1.2181     6.7761    -1.5110 C.ar    
  24 N24           -1.1347     3.7680     1.2909 N.pl3   
  25 O25           -0.7842     4.2886     2.3348 O.2     
  26 O26           -1.7259     2.7033     1.3097 O.2     
  27 F27            5.7310     8.3518     1.7324 F       
  28 H28           -0.9011     2.1676    -0.5679 H       
  29 H29           -0.9561    -0.2751    -0.6211 H       
  30 H30            1.0270    -1.5805     0.0154 H       
  31 H31            3.0905    -0.4533     0.7185 H       
  32 H32            4.1581     2.1795     1.1135 H       
  33 H33            0.7885     5.6200     0.7464 H       
  34 H34           -1.4868     5.2962    -0.1018 H       
  35 H35           -1.0324     3.7248    -0.8035 H       
  36 H36            3.0388     5.8789    -0.8941 H       
  37 H37            4.2604     4.2560     2.8826 H       
  38 H38            5.5493     6.3010     3.3343 H       
  39 H39            4.3323     7.9175    -0.4263 H       
  40 H40            1.7341     8.3499    -2.8626 H       
  41 H41            1.7882     6.8756    -4.8341 H       
  42 H42            1.3040     4.4738    -4.5889 H       
  43 H43            0.7629     3.5468    -2.3728 H       
  44 H44            1.1921     7.4231    -0.6467 H       
@<TRIPOS>BOND
   1    1    2 ar
   2    1    5 ar
   3    1   28 1
   4    2    3 ar
   5    2   29 1
   6    3    4 ar
   7    3   30 1
   8    4    7 ar
   9    4   31 1
  10    5    7 ar
  11    5    6 1
  12    6    9 2
  13    6   10 1
  14    7    8 1
  15    8    9 1
  16    8   32 1
  17    9   11 1
  18   10   12 1
  19   10   13 1
  20   10   33 1
  21   11   15 ar
  22   11   14 ar
  23   12   23 ar
  24   12   22 ar
  25   13   24 1
  26   13   34 1
  27   13   35 1
  28   14   18 ar
  29   14   36 1
  30   15   16 ar
  31   15   37 1
  32   16   17 ar
  33   16   38 1
  34   17   18 ar
  35   17   27 1
  36   18   39 1
  37   19   20 ar
  38   19   23 ar
  39   19   40 1
  40   20   21 ar
  41   20   41 1
  42   21   22 ar
  43   21   42 1
  44   22   43 1
  45   23   44 1
  46   24   25 2
  47   24   26 2

#	End of record

