#	Name: ASD01813588
#	Creating user name:	WinNT
#	Creation time:	15. 06. 2019 19:30

#	Modifying user name:	WinNT
#	Modification time:	15. 06. 2019 19:30

#	Program:	/corina/corina34_cracker 3.40 0067  02.08.2006

@<TRIPOS>MOLECULE
ASD01813588
  50   53    0    0    0
SMALL
NO_CHARGES


@<TRIPOS>ATOM
   1 C1            -0.7183     0.8712     0.2528 C.ar    
   2 C2            -0.4818    -0.4933     0.1862 C.ar    
   3 C3             0.8072    -0.9848     0.1482 C.ar    
   4 C4             1.8889    -0.1065     0.1762 C.ar    
   5 C5             1.6477     1.2763     0.2432 C.ar    
   6 C6             0.3375     1.7601     0.2816 C.ar    
   7 N7             3.1815    -0.5858     0.1398 N.pl3   
   8 C8             4.2534     0.2162     0.1653 C.2     
   9 C9             4.1421     1.5905     0.2310 C.2     
  10 C10            2.8001     2.1942     0.2723 C.2     
  11 O11            2.6487     3.4020     0.3300 O.2     
  12 C12            5.3432     2.4368     0.2582 C.2     
  13 O13            5.2216     3.7778     0.3224 O.3     
  14 O14            6.4465     1.9275     0.2229 O.2     
  15 C15            3.3908    -2.0341     0.0706 C.3     
  16 C16            3.3060    -2.4859    -1.3646 C.ar    
  17 N17            2.1290    -2.7500    -1.8943 N.ar    
  18 C18            2.0070    -3.1501    -3.1539 C.ar    
  19 C19            3.1333    -3.3037    -3.9602 C.ar    
  20 C20            4.3824    -3.0331    -3.4292 C.ar    
  21 C21            4.4642    -2.6122    -2.1093 C.ar    
  22 F22            1.0205    -2.3174     0.0842 F       
  23 F23            0.1053     3.0894     0.3456 F       
  24 C24            0.6621    -3.4363    -3.7073 C.ar    
  25 C25           -0.2379    -4.2341    -2.9913 C.ar    
  26 C26           -1.4948    -4.4958    -3.5178 C.ar    
  27 C27           -1.8543    -3.9703    -4.7434 C.ar    
  28 C28           -0.9659    -3.1809    -5.4534 C.ar    
  29 C29            0.2854    -2.9076    -4.9403 C.ar    
  30 N30            0.1278    -4.7650    -1.7524 N.am    
  31 C31           -0.8159    -5.0277    -0.8268 C.2     
  32 C32           -0.4143    -5.5159     0.5412 C.3     
  33 O33           -1.9884    -4.8712    -1.0948 O.2     
  34 H34           -1.7329     1.2404     0.2777 H       
  35 H35           -1.3156    -1.1793     0.1642 H       
  36 H36            5.2378    -0.2269     0.1339 H       
  37 H37            6.0400     4.2926     0.3380 H       
  38 H38            4.3747    -2.2786     0.4709 H       
  39 H39            2.6239    -2.5405     0.6567 H       
  40 H40            3.0328    -3.6297    -4.9849 H       
  41 H41            5.2732    -3.1431    -4.0297 H       
  42 H42            5.4242    -2.3931    -1.6656 H       
  43 H43           -2.1922    -5.1112    -2.9690 H       
  44 H44           -2.8333    -4.1765    -5.1501 H       
  45 H45           -1.2550    -2.7738    -6.4111 H       
  46 H46            0.9753    -2.2913    -5.4976 H       
  47 H47            1.0610    -4.9446    -1.5581 H       
  48 H48            0.6630    -5.6794     0.5668 H       
  49 H49           -0.6865    -4.7697     1.2877 H       
  50 H50           -0.9291    -6.4518     0.7585 H       
@<TRIPOS>BOND
   1    1    2 ar
   2    1    6 ar
   3    1   34 1
   4    2    3 ar
   5    2   35 1
   6    3    4 ar
   7    3   22 1
   8    4    5 ar
   9    4    7 1
  10    5    6 ar
  11    5   10 1
  12    6   23 1
  13    7    8 1
  14    7   15 1
  15    8    9 2
  16    8   36 1
  17    9   10 1
  18    9   12 1
  19   10   11 2
  20   12   13 1
  21   12   14 2
  22   13   37 1
  23   15   16 1
  24   15   38 1
  25   15   39 1
  26   16   17 ar
  27   16   21 ar
  28   17   18 ar
  29   18   19 ar
  30   18   24 1
  31   19   20 ar
  32   19   40 1
  33   20   21 ar
  34   20   41 1
  35   21   42 1
  36   24   25 ar
  37   24   29 ar
  38   25   26 ar
  39   25   30 1
  40   26   27 ar
  41   26   43 1
  42   27   28 ar
  43   27   44 1
  44   28   29 ar
  45   28   45 1
  46   29   46 1
  47   30   31 am
  48   30   47 1
  49   31   32 1
  50   31   33 2
  51   32   48 1
  52   32   49 1
  53   32   50 1

#	End of record

