#	Name: ASD01150738
#	Creating user name:	WinNT
#	Creation time:	15. 06. 2019 19:04

#	Modifying user name:	WinNT
#	Modification time:	15. 06. 2019 19:04

#	Program:	/corina/corina34_cracker 3.40 0067  02.08.2006

@<TRIPOS>MOLECULE
ASD01150738
  46   49    0    0    0
SMALL
NO_CHARGES


@<TRIPOS>ATOM
   1 C1            -0.2470     1.5657     0.2056 C.2     
   2 C2            -0.8986     1.1516    -1.0887 C.3     
   3 N3             3.3918     2.2289     0.3066 N.ar    
   4 C4             2.2439     1.6040     0.3214 C.ar    
   5 C5             1.0255     2.2945     0.1857 C.ar    
   6 C6             1.0430     3.6926     0.0301 C.ar    
   7 C7             2.3043     4.3382     0.0185 C.ar    
   8 C8             2.4050     5.7272    -0.1325 C.ar    
   9 C9             3.6488     6.3207    -0.1395 C.ar    
  10 C10            4.8041     5.5476     0.0021 C.ar    
  11 C11            4.7294     4.1966     0.1501 C.ar    
  12 C12            3.4782     3.5585     0.1621 C.ar    
  13 O13            3.7525     7.6676    -0.2857 O.3     
  14 C14            3.4503     8.4504     0.7831 C.ar    
  15 C15            3.1623     7.8702     2.0102 C.ar    
  16 C16            2.8559     8.6683     3.0952 C.ar    
  17 C17            2.8359    10.0441     2.9593 C.ar    
  18 C18            3.1221    10.6248     1.7375 C.ar    
  19 C19            3.4347     9.8315     0.6507 C.ar    
  20 C20            2.2249     0.1063     0.4874 C.3     
  21 C21           -0.2102     4.4610    -0.1164 C.ar    
  22 C22           -1.1270     4.5150     0.9361 C.ar    
  23 C23           -2.2946     5.2342     0.7932 C.ar    
  24 C24           -2.5594     5.9024    -0.3910 C.ar    
  25 C25           -1.6543     5.8527    -1.4384 C.ar    
  26 C26           -0.4807     5.1413    -1.3061 C.ar    
  27 Cl27          -4.0321     6.8053    -0.5632 Cl      
  28 O28           -0.7777     1.3005     1.2639 O.2     
  29 H29           -0.3300     1.5544    -1.9268 H       
  30 H30           -0.9194     0.0637    -1.1532 H       
  31 H31           -1.9175     1.5372    -1.1221 H       
  32 H32            1.5147     6.3285    -0.2430 H       
  33 H33            5.7708     6.0291    -0.0063 H       
  34 H34            5.6329     3.6148     0.2579 H       
  35 H35            3.1774     6.7956     2.1168 H       
  36 H36            2.6313     8.2172     4.0505 H       
  37 H37            2.5961    10.6663     3.8089 H       
  38 H38            3.1051    11.6997     1.6338 H       
  39 H39            3.6628    10.2858    -0.3023 H       
  40 H40            2.2572    -0.1421     1.5482 H       
  41 H41            1.3125    -0.2964     0.0476 H       
  42 H42            3.0911    -0.3258    -0.0136 H       
  43 H43           -0.9218     3.9941     1.8597 H       
  44 H44           -3.0044     5.2764     1.6061 H       
  45 H45           -1.8667     6.3755    -2.3593 H       
  46 H46            0.2262     5.1068    -2.1220 H       
@<TRIPOS>BOND
   1    1    2 1
   2    1    5 1
   3    1   28 2
   4    2   29 1
   5    2   30 1
   6    2   31 1
   7    3    4 ar
   8    3   12 ar
   9    4    5 ar
  10    4   20 1
  11    5    6 ar
  12    6    7 ar
  13    6   21 1
  14    7    8 ar
  15    7   12 ar
  16    8    9 ar
  17    8   32 1
  18    9   10 ar
  19    9   13 1
  20   10   11 ar
  21   10   33 1
  22   11   12 ar
  23   11   34 1
  24   13   14 1
  25   14   15 ar
  26   14   19 ar
  27   15   16 ar
  28   15   35 1
  29   16   17 ar
  30   16   36 1
  31   17   18 ar
  32   17   37 1
  33   18   19 ar
  34   18   38 1
  35   19   39 1
  36   20   40 1
  37   20   41 1
  38   20   42 1
  39   21   22 ar
  40   21   26 ar
  41   22   23 ar
  42   22   43 1
  43   23   24 ar
  44   23   44 1
  45   24   25 ar
  46   24   27 1
  47   25   26 ar
  48   25   45 1
  49   26   46 1

#	End of record

