#	Name: ASD04880711
#	Creating user name:	WinNT
#	Creation time:	15. 06. 2019 20:53

#	Modifying user name:	WinNT
#	Modification time:	15. 06. 2019 20:53

#	Program:	/corina/corina34_cracker 3.40 0067  02.08.2006

@<TRIPOS>MOLECULE
ASD04880711
  83   88    0    0    0
SMALL
NO_CHARGES


@<TRIPOS>ATOM
   1 C1             0.0078     1.3658     0.0081 C.ar    
   2 C2            -1.1967     2.0427     0.0701 C.ar    
   3 C3            -1.2153     3.4245     0.1144 C.ar    
   4 C4            -0.0301     4.1336     0.0968 C.ar    
   5 C5             1.1813     3.4570     0.0345 C.ar    
   6 C6             1.1964     2.0685    -0.0099 C.ar    
   7 C7            -0.0513     5.6397     0.1446 C.3     
   8 N8             2.3816     4.1710     0.0160 N.3     
   9 C9             3.1850     3.8815     1.2120 C.3     
  10 C10            3.1439     3.8881    -1.2081 C.3     
  11 C11            4.4103     4.7473    -1.2273 C.3     
  12 N12            5.2137     4.4577    -0.0314 N.3     
  13 C13            4.4515     4.7406     1.1928 C.3     
  14 C14            6.4104     5.1695    -0.0498 C.ar    
  15 C15            6.6425     6.1608     0.8961 C.ar    
  16 C16            7.8260     6.8680     0.8816 C.ar    
  17 C17            8.7964     6.5886    -0.0866 C.ar    
  18 C18            8.5640     5.5911    -1.0384 C.ar    
  19 C19            7.3786     4.8817    -1.0161 C.ar    
  20 N20            7.1447     3.8775    -1.9655 N.am    
  21 C21            7.6267     4.0081    -3.2173 C.2     
  22 C22            7.4901     2.8995    -4.1791 C.2     
  23 O23            8.1746     5.0408    -3.5534 O.2     
  24 C24            6.9769     0.9832    -5.0305 C.2     
  25 O25            7.6025     1.6913    -5.9814 O.3     
  26 C26            7.9311     2.8871    -5.4667 C.2     
  27 N27            6.9045     1.6938    -3.9451 N.2     
  28 C28            6.4417    -0.4160    -5.1946 C.3     
  29 C29            5.3762    -0.6433    -6.2689 C.3     
  30 C30            6.7996    -1.1629    -6.4811 C.3     
  31 C31           10.0619     7.3450    -0.1035 C.2     
  32 N32           10.9961     7.0749    -1.0367 N.am    
  33 O33           10.2628     8.2126     0.7245 O.2     
  34 C34           12.2535     7.8265    -1.0536 C.3     
  35 C35           13.1308     7.3270    -2.2032 C.3     
  36 C36           14.4440     8.1120    -2.2208 C.3     
  37 N37           15.2841     7.6337    -3.3216 N.am    
  38 C38           16.5638     6.1085    -4.6582 C.3     
  39 C39           16.2551     6.5392    -3.2071 C.3     
  40 C40           15.2605     8.1372    -4.5677 C.2     
  41 C41           16.2479     7.4001    -5.4454 C.3     
  42 O42           14.5505     9.0492    -4.9351 O.2     
  43 Cl43           8.1117     8.1059     2.0646 Cl      
  44 C44            0.0234    -0.1406    -0.0338 C.3     
  45 H45           -2.1248     1.4906     0.0837 H       
  46 H46           -2.1576     3.9500     0.1625 H       
  47 H47            2.1366     1.5393    -0.0580 H       
  48 H48           -0.0220     5.9707     1.1827 H       
  49 H49            0.8157     6.0323    -0.3866 H       
  50 H50           -0.9631     6.0054    -0.3277 H       
  51 H51            2.6036     4.1107     2.1050 H       
  52 H52            3.4610     2.8270     1.2182 H       
  53 H53            3.4194     2.8337    -1.2295 H       
  54 H54            2.5324     4.1222    -2.0796 H       
  55 H55            4.9918     4.5180    -2.1203 H       
  56 H56            4.1343     5.8017    -1.2335 H       
  57 H57            4.1760     5.7950     1.2141 H       
  58 H58            5.0630     4.5066     2.0642 H       
  59 H59            5.8941     6.3779     1.6439 H       
  60 H60            9.3110     5.3732    -1.7873 H       
  61 H61            6.6358     3.0885    -1.7216 H       
  62 H62            8.4471     3.6868    -5.9771 H       
  63 H63            6.3647    -1.0004    -4.2778 H       
  64 H64            4.5985    -1.3776    -6.0589 H       
  65 H65            5.0624     0.2192    -6.8569 H       
  66 H66            7.4221    -0.6422    -7.2087 H       
  67 H67            6.9582    -2.2390    -6.4108 H       
  68 H68           10.8358     6.3828    -1.6973 H       
  69 H69           12.0413     8.8866    -1.1925 H       
  70 H70           12.7761     7.6814    -0.1081 H       
  71 H71           13.3430     6.2669    -2.0643 H       
  72 H72           12.6082     7.4721    -3.1487 H       
  73 H73           14.2318     9.1720    -2.3597 H       
  74 H74           14.9667     7.9669    -1.2753 H       
  75 H75           17.6117     5.8294    -4.7677 H       
  76 H76           15.9100     5.2943    -4.9709 H       
  77 H77           17.1630     6.8902    -2.7166 H       
  78 H78           15.8224     5.7077    -2.6508 H       
  79 H79           17.1520     7.9930    -5.5842 H       
  80 H80           15.7969     7.1594    -6.4081 H       
  81 H81           -0.0100    -0.4756    -1.0705 H       
  82 H82            0.9351    -0.5077     0.4376 H       
  83 H83           -0.8436    -0.5279     0.5013 H       
@<TRIPOS>BOND
   1    1    2 ar
   2    1    6 ar
   3    1   44 1
   4    2    3 ar
   5    2   45 1
   6    3    4 ar
   7    3   46 1
   8    4    5 ar
   9    4    7 1
  10    5    6 ar
  11    5    8 1
  12    6   47 1
  13    7   48 1
  14    7   49 1
  15    7   50 1
  16    8   10 1
  17    8    9 1
  18    9   13 1
  19    9   51 1
  20    9   52 1
  21   10   11 1
  22   10   53 1
  23   10   54 1
  24   11   12 1
  25   11   55 1
  26   11   56 1
  27   12   13 1
  28   12   14 1
  29   13   57 1
  30   13   58 1
  31   14   15 ar
  32   14   19 ar
  33   15   16 ar
  34   15   59 1
  35   16   17 ar
  36   16   43 1
  37   17   18 ar
  38   17   31 1
  39   18   19 ar
  40   18   60 1
  41   19   20 1
  42   20   21 am
  43   20   61 1
  44   21   22 1
  45   21   23 2
  46   22   27 1
  47   22   26 2
  48   24   25 1
  49   24   27 2
  50   24   28 1
  51   25   26 1
  52   26   62 1
  53   28   29 1
  54   28   30 1
  55   28   63 1
  56   29   30 1
  57   29   64 1
  58   29   65 1
  59   30   66 1
  60   30   67 1
  61   31   32 am
  62   31   33 2
  63   32   34 1
  64   32   68 1
  65   34   35 1
  66   34   69 1
  67   34   70 1
  68   35   36 1
  69   35   71 1
  70   35   72 1
  71   36   37 1
  72   36   73 1
  73   36   74 1
  74   37   40 am
  75   37   39 1
  76   38   39 1
  77   38   41 1
  78   38   75 1
  79   38   76 1
  80   39   77 1
  81   39   78 1
  82   40   41 1
  83   40   42 2
  84   41   79 1
  85   41   80 1
  86   44   81 1
  87   44   82 1
  88   44   83 1

#	End of record

