#	Name: ASD08178106
#	Creating user name:	WinNT
#	Creation time:	15. 06. 2019 21:18

#	Modifying user name:	WinNT
#	Modification time:	15. 06. 2019 21:18

#	Program:	/corina/corina34_cracker 3.40 0067  02.08.2006

@<TRIPOS>MOLECULE
ASD08178106
  75   79    0    0    0
SMALL
NO_CHARGES


@<TRIPOS>ATOM
   1 C1            -0.0171     1.5947     0.8877 C.2     
   2 C2             0.0226     0.1080     1.1307 C.3     
   3 C3             0.7527    -0.1747     2.4452 C.3     
   4 C4             0.7930    -1.6842     2.6918 C.3     
   5 C5             1.5231    -1.9668     4.0063 C.3     
   6 C6             1.5627    -3.4536     4.2493 C.2     
   7 N7             2.4904    -4.2675     3.8559 N.2     
   8 N8             2.3411    -5.4836     4.1602 N.2     
   9 C9             1.2805    -5.8106     4.8349 C.2     
  10 S10            0.3580    -4.3969     5.1270 S.3     
  11 N11            0.9511    -7.0947     5.2555 N.am    
  12 N12            0.8699     2.2881     0.2473 N.2     
  13 C13            1.7665    -8.1282     4.9668 C.2     
  14 O14            2.7875    -7.9385     4.3401 O.2     
  15 C15            1.4097    -9.5196     5.4225 C.3     
  16 C16            2.4776   -10.4842     4.9748 C.ar    
  17 N17            0.6551     3.5284     0.1504 N.2     
  18 C18           -0.4262     3.9976     0.6959 C.2     
  19 S19           -1.2836     2.7021     1.4179 S.3     
  20 C20            3.3522   -11.9950     3.3363 C.ar    
  21 C21            3.5614   -10.7438     5.7927 C.ar    
  22 C22            4.5409   -11.6285     5.3820 C.ar    
  23 C23            4.4364   -12.2540     4.1537 C.ar    
  24 C24            2.3704   -11.1136     3.7488 C.ar    
  25 N25           -0.8247     5.3300     0.6900 N.am    
  26 C26           -0.0622     6.2588     0.0798 C.2     
  27 O27            0.9716     5.9326    -0.4641 O.2     
  28 C28           -0.4940     7.7026     0.0734 C.3     
  29 C29            0.7386     8.6040     0.1686 C.3     
  30 C30            0.3001    10.0698     0.1621 C.3     
  31 C31           -0.4530    10.3711    -1.1351 C.3     
  32 C32           -1.6856     9.4697    -1.2304 C.3     
  33 C33           -1.2471     8.0039    -1.2239 C.3     
  34 C34            1.4917     8.3027     1.4659 C.3     
  35 O35            2.6801     9.0943     1.5216 O.3     
  36 C36            0.6130     8.6322     2.6450 C.ar    
  37 C37           -0.0631     7.6239     3.3063 C.ar    
  38 C38           -0.8692     7.9261     4.3878 C.ar    
  39 C39           -0.9989     9.2365     4.8084 C.ar    
  40 C40           -0.3220    10.2447     4.1478 C.ar    
  41 C41            0.4875     9.9419     3.0689 C.ar    
  42 H42           -0.9952    -0.2778     1.1901 H       
  43 H43            0.5489    -0.3803     0.3105 H       
  44 H44            1.7704     0.2110     2.3857 H       
  45 H45            0.2264     0.3135     3.2654 H       
  46 H46           -0.2248    -2.0699     2.7512 H       
  47 H47            1.3193    -2.1724     1.8716 H       
  48 H48            2.5408    -1.5811     3.9469 H       
  49 H49            0.9968    -1.4786     4.8265 H       
  50 H50            0.1346    -7.2464     5.7567 H       
  51 H51            1.3361    -9.5381     6.5098 H       
  52 H52            0.4529    -9.8099     4.9885 H       
  53 H53            3.2685   -12.4868     2.3784 H       
  54 H54            3.6430   -10.2551     6.7524 H       
  55 H55            5.3880   -11.8308     6.0207 H       
  56 H56            5.2017   -12.9452     3.8329 H       
  57 H57            1.5233   -10.9113     3.1101 H       
  58 H58           -1.6515     5.5909     1.1250 H       
  59 H59           -1.1479     7.8900     0.9250 H       
  60 H60            1.3925     8.4166    -0.6830 H       
  61 H61           -0.3538    10.2573     1.0138 H       
  62 H62            1.1783    10.7120     0.2300 H       
  63 H63           -0.7653    11.4154    -1.1398 H       
  64 H64            0.2009    10.1837    -1.9868 H       
  65 H65           -2.3395     9.6571    -0.3787 H       
  66 H66           -2.2221     9.6843    -2.1546 H       
  67 H67           -0.5932     7.8164    -2.0756 H       
  68 H68           -2.1252     7.3617    -1.2918 H       
  69 H69            1.7573     7.2460     1.4948 H       
  70 H70            2.5254    10.0436     1.4218 H       
  71 H71            0.0381     6.6001     2.9776 H       
  72 H72           -1.3980     7.1385     4.9040 H       
  73 H73           -1.6292     9.4727     5.6530 H       
  74 H74           -0.4236    11.2685     4.4762 H       
  75 H75            1.0163    10.7296     2.5528 H       
@<TRIPOS>BOND
   1    1    2 1
   2    1   12 2
   3    1   19 1
   4    2    3 1
   5    2   42 1
   6    2   43 1
   7    3    4 1
   8    3   44 1
   9    3   45 1
  10    4    5 1
  11    4   46 1
  12    4   47 1
  13    5    6 1
  14    5   48 1
  15    5   49 1
  16    6    7 2
  17    6   10 1
  18    7    8 1
  19    8    9 2
  20    9   10 1
  21    9   11 1
  22   11   13 am
  23   11   50 1
  24   12   17 1
  25   13   14 2
  26   13   15 1
  27   15   16 1
  28   15   51 1
  29   15   52 1
  30   16   21 ar
  31   16   24 ar
  32   17   18 2
  33   18   19 1
  34   18   25 1
  35   20   24 ar
  36   20   23 ar
  37   20   53 1
  38   21   22 ar
  39   21   54 1
  40   22   23 ar
  41   22   55 1
  42   23   56 1
  43   24   57 1
  44   25   26 am
  45   25   58 1
  46   26   27 2
  47   26   28 1
  48   28   29 1
  49   28   33 1
  50   28   59 1
  51   29   30 1
  52   29   34 1
  53   29   60 1
  54   30   31 1
  55   30   61 1
  56   30   62 1
  57   31   32 1
  58   31   63 1
  59   31   64 1
  60   32   33 1
  61   32   65 1
  62   32   66 1
  63   33   67 1
  64   33   68 1
  65   34   35 1
  66   34   36 1
  67   34   69 1
  68   35   70 1
  69   36   37 ar
  70   36   41 ar
  71   37   38 ar
  72   37   71 1
  73   38   39 ar
  74   38   72 1
  75   39   40 ar
  76   39   73 1
  77   40   41 ar
  78   40   74 1
  79   41   75 1

#	End of record

