#	Name: ASD01141124
#	Creating user name:	WinNT
#	Creation time:	15. 06. 2019 19:01

#	Modifying user name:	WinNT
#	Modification time:	15. 06. 2019 19:01

#	Program:	/corina/corina34_cracker 3.40 0067  02.08.2006

@<TRIPOS>MOLECULE
ASD01141124
  72   76    0    0    0
SMALL
NO_CHARGES


@<TRIPOS>ATOM
   1 C1            -0.1500     2.5877    -0.0596 C.3     
   2 C2            -0.3698     1.0754    -0.0701 C.3     
   3 C3             0.3306     0.4406     1.1338 C.3     
   4 C4             1.8249     0.7716     1.0746 C.3     
   5 C5             1.9986     2.2918     1.1669 C.3     
   6 C6             1.3514     2.9038    -0.0733 C.3     
   7 C7             2.5592     0.0711     2.2141 C.3     
   8 C8             4.0597     0.3700     2.1205 C.3     
   9 C9             4.2853     1.3682     0.9777 C.3     
  10 C10            3.4873     2.6345     1.2843 C.3     
  11 C11            5.7356     1.6209     0.7349 C.3     
  12 C12            6.1716     3.0507     1.1199 C.3     
  13 C13            5.3924     4.0371     0.2922 C.3     
  14 C14            3.8766     3.8400     0.4561 C.3     
  15 C15            6.7695     0.7811     1.5015 C.3     
  16 C16            8.0873     1.5212     1.1197 C.3     
  17 C17            7.6827     2.9852     0.8117 C.3     
  18 C18            6.0420     3.3375     2.6140 C.3     
  19 H19            2.2154     0.4201     0.1174 H       
  20 O20            0.1558     0.5220    -1.2779 O.3     
  21 C21           -1.8711     0.7820     0.0074 C.3     
  22 C22            3.3488     5.0824     1.1260 C.ar    
  23 C23            2.5145     5.9391     0.4314 C.ar    
  24 C24            2.0289     7.0786     1.0423 C.ar    
  25 C25            2.3795     7.3638     2.3558 C.ar    
  26 C26            3.2178     6.5011     3.0505 C.ar    
  27 C27            3.6952     5.3604     2.4355 C.ar    
  28 N28            1.8906     8.5156     2.9765 N.pl3   
  29 C29            1.1048     9.4843     2.2082 C.3     
  30 C30            2.1637     8.7549     4.3958 C.3     
  31 N31            8.4041     3.9110     1.6848 N.pl3   
  32 O32            9.1120     4.7767     1.2023 O.2     
  33 O33            8.2969     3.8160     2.8944 O.2     
  34 H34           -0.6169     3.0310    -0.9391 H       
  35 H35           -0.5963     3.0140     0.8396 H       
  36 H36           -0.0935     0.8375     2.0547 H       
  37 H37            0.1978    -0.6403     1.1035 H       
  38 H38            1.4845     2.6538     2.0596 H       
  39 H39            1.7998     2.4736    -0.9697 H       
  40 H40            1.4674     3.9825    -0.0899 H       
  41 H41            2.1769     0.4259     3.1713 H       
  42 H42            2.4013    -1.0065     2.1414 H       
  43 H43            4.4071     0.8022     3.0560 H       
  44 H44            4.6036    -0.5493     1.9087 H       
  45 H45            3.8687     0.9154     0.0597 H       
  46 H46            3.6281     2.8808     2.3503 H       
  47 H47            5.9388     1.4778    -0.3492 H       
  48 H48            5.6583     5.0610     0.5857 H       
  49 H49            5.6574     3.9190    -0.7677 H       
  50 H50            3.4208     3.7753    -0.5377 H       
  51 H51            6.6030     0.7888     2.5687 H       
  52 H52            6.7897    -0.2398     1.1170 H       
  53 H53            8.7828     1.4924     1.9564 H       
  54 H54            8.5285     1.0601     0.2388 H       
  55 H55            7.8535     3.2195    -0.2339 H       
  56 H56            6.7403     2.7088     3.1665 H       
  57 H57            6.2693     4.3865     2.8036 H       
  58 H58            5.0240     3.1219     2.9384 H       
  59 H59           -0.2514     0.8735    -2.0814 H       
  60 H60           -2.3736     1.2298    -0.8499 H       
  61 H61           -2.0314    -0.2962     0.0001 H       
  62 H62           -2.2767     1.2034     0.9272 H       
  63 H63            2.2426     5.7170    -0.5899 H       
  64 H64            1.3777     7.7474     0.4992 H       
  65 H65            3.4923     6.7198     4.0719 H       
  66 H66            4.3467     4.6890     2.9752 H       
  67 H67            0.9304     9.0963     1.2046 H       
  68 H68            0.1488     9.6517     2.7043 H       
  69 H69            1.6507    10.4256     2.1440 H       
  70 H70            3.0932     9.3149     4.4975 H       
  71 H71            1.3450     9.3274     4.8317 H       
  72 H72            2.2559     7.8004     4.9140 H       
@<TRIPOS>BOND
   1    1    2 1
   2    1    6 1
   3    1   34 1
   4    1   35 1
   5    2    3 1
   6    2   20 1
   7    2   21 1
   8    3    4 1
   9    3   36 1
  10    3   37 1
  11    4    5 1
  12    4    7 1
  13    4   19 1
  14    5    6 1
  15    5   10 1
  16    5   38 1
  17    6   39 1
  18    6   40 1
  19    7    8 1
  20    7   41 1
  21    7   42 1
  22    8    9 1
  23    8   43 1
  24    8   44 1
  25    9   10 1
  26    9   11 1
  27    9   45 1
  28   10   14 1
  29   10   46 1
  30   11   12 1
  31   11   15 1
  32   11   47 1
  33   12   13 1
  34   12   18 1
  35   12   17 1
  36   13   14 1
  37   13   48 1
  38   13   49 1
  39   14   22 1
  40   14   50 1
  41   15   16 1
  42   15   51 1
  43   15   52 1
  44   16   17 1
  45   16   53 1
  46   16   54 1
  47   17   31 1
  48   17   55 1
  49   18   56 1
  50   18   57 1
  51   18   58 1
  52   20   59 1
  53   21   60 1
  54   21   61 1
  55   21   62 1
  56   22   23 ar
  57   22   27 ar
  58   23   24 ar
  59   23   63 1
  60   24   25 ar
  61   24   64 1
  62   25   26 ar
  63   25   28 1
  64   26   27 ar
  65   26   65 1
  66   27   66 1
  67   28   29 1
  68   28   30 1
  69   29   67 1
  70   29   68 1
  71   29   69 1
  72   30   70 1
  73   30   71 1
  74   30   72 1
  75   31   32 2
  76   31   33 2

#	End of record

