#	Name: ASD02198457
#	Creating user name:	WinNT
#	Creation time:	15. 06. 2019 20:19

#	Modifying user name:	WinNT
#	Modification time:	15. 06. 2019 20:19

#	Program:	/corina/corina34_cracker 3.40 0067  02.08.2006

@<TRIPOS>MOLECULE
ASD02198457
  35   38    0    0    0
SMALL
NO_CHARGES


@<TRIPOS>ATOM
   1 C1            -0.0166     1.3753     0.0096 C.2     
   2 S2             1.4699     3.6967     0.0084 S.o2    
   3 C3             1.1859     1.9578     0.0012 C.2     
   4 N4             1.5643     4.1715     1.5921 N.am    
   5 O5             2.7627     3.8944    -0.5475 O.2     
   6 O6             0.2960     4.2972    -0.5212 O.2     
   7 C7             2.6598     3.6898     2.4371 C.3     
   8 C8             2.7370     4.5292     3.6864 C.2     
   9 C9             2.1611     4.2207     4.8589 C.2     
  10 C10            2.4879     5.3019     5.7902 C.ar    
  11 C11            3.2735     6.2199     5.0667 C.ar    
  12 N12            3.4098     5.7167     3.7952 N.pl3   
  13 C13            2.1903     5.5589     7.1302 C.ar    
  14 C14            2.6866     6.7188     7.6952 C.ar    
  15 C15            3.4535     7.5779     6.9236 C.ar    
  16 N16            3.7228     7.3167     5.6620 N.ar    
  17 C17            0.0021    -0.0041     0.0020 C.2     
  18 C18            1.2342    -0.5508    -0.0127 C.2     
  19 S19            2.4424     0.7275    -0.0174 S.3     
  20 C20            1.5248    -1.9999    -0.0232 C.2     
  21 N21            2.7662    -2.4511    -0.0375 N.2     
  22 N22            0.5603    -2.8889    -0.0133 N.2     
  23 S23            1.3317    -4.4029    -0.0304 S.3     
  24 C24            2.9253    -3.7495    -0.0455 C.2     
  25 Cl25           4.4231    -4.6268    -0.0674 Cl      
  26 H26           -0.9355     1.9425     0.0257 H       
  27 H27            0.8943     4.7685     1.9602 H       
  28 H28            2.4789     2.6498     2.7088 H       
  29 H29            3.6000     3.7643     1.8907 H       
  30 H30            1.5696     3.3430     5.0740 H       
  31 H31            3.9044     6.1435     3.0782 H       
  32 H32            1.5898     4.8718     7.7079 H       
  33 H33            2.4784     6.9538     8.7286 H       
  34 H34            3.8392     8.4833     7.3683 H       
  35 H35           -0.8993    -0.5990     0.0078 H       
@<TRIPOS>BOND
   1    1   17 1
   2    1    3 2
   3    1   26 1
   4    2    3 1
   5    2    5 2
   6    2    6 2
   7    2    4 am
   8    3   19 1
   9    4    7 1
  10    4   27 1
  11    7    8 1
  12    7   28 1
  13    7   29 1
  14    8    9 2
  15    8   12 1
  16    9   10 1
  17    9   30 1
  18   10   11 ar
  19   10   13 ar
  20   11   12 1
  21   11   16 ar
  22   12   31 1
  23   13   14 ar
  24   13   32 1
  25   14   15 ar
  26   14   33 1
  27   15   16 ar
  28   15   34 1
  29   17   18 2
  30   17   35 1
  31   18   19 1
  32   18   20 1
  33   20   21 1
  34   20   22 2
  35   21   24 2
  36   22   23 1
  37   23   24 1
  38   24   25 1

#	End of record

