#	Name: ASD01100054
#	Creating user name:	WinNT
#	Creation time:	15. 06. 2019 18:58

#	Modifying user name:	WinNT
#	Modification time:	15. 06. 2019 18:58

#	Program:	/corina/corina34_cracker 3.40 0067  02.08.2006

@<TRIPOS>MOLECULE
ASD01100054
  37   38    0    0    0
SMALL
NO_CHARGES


@<TRIPOS>ATOM
   1 C1             0.2573     1.9209    -2.0856 C.ar    
   2 C2            -0.0461     0.6024    -1.7963 C.ar    
   3 C3             0.8260    -0.1569    -1.0366 C.ar    
   4 C4             1.9997     0.4021    -0.5672 C.ar    
   5 C5             2.3023     1.7196    -0.8566 C.ar    
   6 C6             1.4313     2.4787    -1.6157 C.ar    
   7 C7             3.5819     2.3285    -0.3441 C.3     
   8 C8             3.2579     3.3614     0.7371 C.3     
   9 C9             2.6832     2.6517     1.9646 C.3     
  10 C10            4.5354     4.1062     1.1302 C.3     
  11 Cl11          -1.5207    -0.0988    -2.3857 Cl      
  12 C12            4.3083     3.0015    -1.4801 C.2     
  13 N13            5.6326     3.2345    -1.3893 N.am    
  14 O14            3.7011     3.3334    -2.4762 O.2     
  15 C15            6.3231     3.7561    -2.4778 C.2     
  16 N16            7.5923     4.0163    -2.4957 N.2     
  17 C17            8.0856     4.5100    -3.6169 C.2     
  18 C18            7.1886     4.6741    -4.5924 C.2     
  19 S19            5.6219     4.1401    -3.9890 S.3     
  20 Cl20           7.5110     5.2983    -6.1799 Cl      
  21 C21            2.2312     4.3594     0.1978 C.3     
  22 H22           -0.4209     2.5128    -2.6824 H       
  23 H23            0.5895    -1.1860    -0.8101 H       
  24 H24            2.6803    -0.1904     0.0262 H       
  25 H25            1.6683     3.5079    -1.8415 H       
  26 H26            4.2130     1.5464     0.0780 H       
  27 H27            3.4146     1.9407     2.3489 H       
  28 H28            2.4524     3.3875     2.7349 H       
  29 H29            1.7731     2.1211     1.6846 H       
  30 H30            5.0218     4.4912     0.2340 H       
  31 H31            4.2837     4.9351     1.7917 H       
  32 H32            5.2106     3.4227     1.6449 H       
  33 H33            6.1042     3.0384    -0.5646 H       
  34 H34            9.1294     4.7608    -3.7351 H       
  35 H35            1.3043     3.8361    -0.0368 H       
  36 H36            2.0367     5.1232     0.9507 H       
  37 H37            2.6213     4.8299    -0.7048 H       
@<TRIPOS>BOND
   1    1    2 ar
   2    1    6 ar
   3    1   22 1
   4    2    3 ar
   5    2   11 1
   6    3    4 ar
   7    3   23 1
   8    4    5 ar
   9    4   24 1
  10    5    6 ar
  11    5    7 1
  12    6   25 1
  13    7    8 1
  14    7   12 1
  15    7   26 1
  16    8    9 1
  17    8   10 1
  18    8   21 1
  19    9   27 1
  20    9   28 1
  21    9   29 1
  22   10   30 1
  23   10   31 1
  24   10   32 1
  25   12   13 am
  26   12   14 2
  27   13   15 1
  28   13   33 1
  29   15   16 2
  30   15   19 1
  31   16   17 1
  32   17   18 2
  33   17   34 1
  34   18   19 1
  35   18   20 1
  36   21   35 1
  37   21   36 1
  38   21   37 1

#	End of record

