#	Name: ASD05380022
#	Creating user name:	WinNT
#	Creation time:	15. 06. 2019 20:59

#	Modifying user name:	WinNT
#	Modification time:	15. 06. 2019 20:59

#	Program:	/corina/corina34_cracker 3.40 0067  02.08.2006

@<TRIPOS>MOLECULE
ASD05380022
  64   69    0    0    0
SMALL
NO_CHARGES


@<TRIPOS>ATOM
   1 C1             0.0082     1.7653    -0.1415 C.ar    
   2 C2             0.2435     0.3725    -0.1781 C.ar    
   3 C3             1.0672     2.6564    -0.3006 C.ar    
   4 C4             2.3417     2.1689    -0.4932 C.ar    
   5 C5             2.5763     0.8009    -0.5302 C.ar    
   6 C6             1.5437    -0.0966    -0.3742 C.ar    
   7 C7             0.8208     4.1426    -0.2627 C.3     
   8 N8            -0.8029    -0.4761    -0.0205 N.2     
   9 C9            -2.0119    -0.0395     0.1627 C.2     
  10 N10           -2.3300     1.2824     0.2118 N.am    
  11 C11           -1.3709     2.2272     0.0731 C.2     
  12 C12           -3.6611     1.6690     0.4129 C.ar    
  13 C13           -4.6021     1.4709    -0.5889 C.ar    
  14 C14           -4.0438     2.2458     1.6167 C.ar    
  15 C15           -5.3572     2.6255     1.8121 C.ar    
  16 C16           -6.2909     2.4313     0.8107 C.ar    
  17 C17           -5.9140     1.8528    -0.3873 C.ar    
  18 C18           -3.1191    -1.0483     0.3290 C.3     
  19 N19           -2.8290    -2.2305    -0.4861 N.pl3   
  20 C20           -1.6757    -2.9601    -0.2605 C.ar    
  21 N21           -0.8186    -2.6032     0.6918 N.ar    
  22 O22           -1.6410     3.4134     0.1149 O.2     
  23 C23           -1.3834    -4.0985    -1.0266 C.ar    
  24 C24           -0.1975    -4.8069    -0.7579 C.ar    
  25 N25            0.6001    -4.3675     0.2143 N.ar    
  26 C26            0.2836    -3.2973     0.9108 C.ar    
  27 C27           -2.0406    -4.8049    -2.1246 C.2     
  28 C28           -1.2550    -5.8471    -2.4414 C.2     
  29 N29           -0.1495    -5.8589    -1.6307 N.pl3   
  30 C30           -3.2212    -1.4556     1.8002 C.3     
  31 O31           -4.3437    -2.3219     1.9778 O.3     
  32 C32           -4.5302    -2.7631     3.3241 C.3     
  33 C33           -5.7349    -3.6657     3.3947 C.ar    
  34 C34           -5.5893    -5.0283     3.2129 C.ar    
  35 C35           -6.6943    -5.8562     3.2776 C.ar    
  36 C36           -7.9450    -5.3216     3.5245 C.ar    
  37 C37           -8.0905    -3.9592     3.7072 C.ar    
  38 C38           -6.9848    -3.1317     3.6468 C.ar    
  39 H39            3.1650     2.8568    -0.6169 H       
  40 H40            3.5814     0.4362    -0.6829 H       
  41 H41            1.7386    -1.1584    -0.4040 H       
  42 H42            0.7969     4.4807     0.7733 H       
  43 H43            1.6211     4.6573    -0.7944 H       
  44 H44           -0.1338     4.3649    -0.7396 H       
  45 H45           -4.3083     1.0191    -1.5248 H       
  46 H46           -3.3152     2.3971     2.3994 H       
  47 H47           -5.6555     3.0742     2.7481 H       
  48 H48           -7.3176     2.7284     0.9662 H       
  49 H49           -6.6454     1.7028    -1.1677 H       
  50 H50           -4.0630    -0.6080     0.0075 H       
  51 H51           -3.4457    -2.5017    -1.1839 H       
  52 H52            0.9528    -2.9727     1.6938 H       
  53 H53           -2.9779    -4.5399    -2.5911 H       
  54 H54           -1.4632    -6.5681    -3.2181 H       
  55 H55            0.5626    -6.5164    -1.6707 H       
  56 H56           -2.3104    -1.9755     2.0973 H       
  57 H57           -3.3485    -0.5651     2.4158 H       
  58 H58           -3.6466    -3.3101     3.6529 H       
  59 H59           -4.6846    -1.8997     3.9713 H       
  60 H60           -4.6121    -5.4459     3.0200 H       
  61 H61           -6.5806    -6.9207     3.1348 H       
  62 H62           -8.8085    -5.9684     3.5743 H       
  63 H63           -9.0677    -3.5415     3.8998 H       
  64 H64           -7.0985    -2.0673     3.7896 H       
@<TRIPOS>BOND
   1    1    2 ar
   2    1    3 ar
   3    1   11 1
   4    2    8 1
   5    2    6 ar
   6    3    4 ar
   7    3    7 1
   8    4    5 ar
   9    4   39 1
  10    5    6 ar
  11    5   40 1
  12    6   41 1
  13    7   42 1
  14    7   43 1
  15    7   44 1
  16    8    9 2
  17    9   10 1
  18    9   18 1
  19   10   11 am
  20   10   12 1
  21   11   22 2
  22   12   13 ar
  23   12   14 ar
  24   13   17 ar
  25   13   45 1
  26   14   15 ar
  27   14   46 1
  28   15   16 ar
  29   15   47 1
  30   16   17 ar
  31   16   48 1
  32   17   49 1
  33   18   19 1
  34   18   30 1
  35   18   50 1
  36   19   20 1
  37   19   51 1
  38   20   21 ar
  39   20   23 ar
  40   21   26 ar
  41   23   24 ar
  42   23   27 1
  43   24   25 ar
  44   24   29 1
  45   25   26 ar
  46   26   52 1
  47   27   28 2
  48   27   53 1
  49   28   29 1
  50   28   54 1
  51   29   55 1
  52   30   31 1
  53   30   56 1
  54   30   57 1
  55   31   32 1
  56   32   33 1
  57   32   58 1
  58   32   59 1
  59   33   34 ar
  60   33   38 ar
  61   34   35 ar
  62   34   60 1
  63   35   36 ar
  64   35   61 1
  65   36   37 ar
  66   36   62 1
  67   37   38 ar
  68   37   63 1
  69   38   64 1

#	End of record

