#	Name: ASD02690003
#	Creating user name:	WinNT
#	Creation time:	15. 06. 2019 20:26

#	Modifying user name:	WinNT
#	Modification time:	15. 06. 2019 20:26

#	Program:	/corina/corina34_cracker 3.40 0067  02.08.2006

@<TRIPOS>MOLECULE
ASD02690003
  42   44    0    0    0
SMALL
NO_CHARGES


@<TRIPOS>ATOM
   1 C1            -0.2613     2.0921     0.7535 C.ar    
   2 C2            -0.0404     0.7230     0.6427 C.ar    
   3 C3            -1.1151    -0.1297     0.4603 C.ar    
   4 C4            -2.4090     0.3728     0.3874 C.ar    
   5 C5            -2.6255     1.7279     0.4751 C.ar    
   6 C6            -1.5505     2.5862     0.6745 C.ar    
   7 O7             0.7849     2.9398     0.9441 O.3     
   8 O8             1.2237     0.2258     0.7128 O.3     
   9 Cl9           -0.8453    -1.8390     0.3210 Cl      
  10 C10           -3.5376    -0.6138     0.2416 C.3     
  11 C11           -4.4737    -0.1986    -0.8966 C.3     
  12 N12           -5.5551     0.6043    -0.3224 N.3     
  13 C13           -5.0850     1.3952     0.8223 C.3     
  14 C14           -3.9937     2.3506     0.3424 C.3     
  15 C15           -6.1689     1.4662    -1.3413 C.3     
  16 C16           -4.0443     3.6117     1.1658 C.ar    
  17 C17           -3.8636     3.5509     2.5347 C.ar    
  18 C18           -3.9101     4.7079     3.2902 C.ar    
  19 C19           -4.1368     5.9254     2.6765 C.ar    
  20 C20           -4.3167     5.9863     1.3070 C.ar    
  21 C21           -4.2659     4.8302     0.5512 C.ar    
  22 C22           -4.5643     7.3137     0.6379 C.3     
  23 H23           -1.7226     3.6490     0.7599 H       
  24 H24            1.1777     3.2703     0.1246 H       
  25 H25            1.5077    -0.0020     1.6086 H       
  26 H26           -3.1269    -1.6004     0.0272 H       
  27 H27           -4.1015    -0.6549     1.1736 H       
  28 H28           -3.9240     0.3932    -1.6285 H       
  29 H29           -4.8878    -1.0859    -1.3754 H       
  30 H30           -5.9151     1.9670     1.2371 H       
  31 H31           -4.6793     0.7299     1.5844 H       
  32 H32           -4.1724     2.6007    -0.7034 H       
  33 H33           -6.6805     0.8485    -2.0795 H       
  34 H34           -6.8870     2.1350    -0.8667 H       
  35 H35           -5.3948     2.0547    -1.8337 H       
  36 H36           -3.6865     2.5996     3.0143 H       
  37 H37           -3.7696     4.6603     4.3600 H       
  38 H38           -4.1738     6.8291     3.2667 H       
  39 H39           -4.4064     4.8778    -0.5185 H       
  40 H40           -3.6119     7.7584     0.3492 H       
  41 H41           -5.1793     7.1641    -0.2495 H       
  42 H42           -5.0808     7.9787     1.3300 H       
@<TRIPOS>BOND
   1    1    2 ar
   2    1    7 1
   3    1    6 ar
   4    2    3 ar
   5    2    8 1
   6    3    4 ar
   7    3    9 1
   8    4    5 ar
   9    4   10 1
  10    5    6 ar
  11    5   14 1
  12    6   23 1
  13    7   24 1
  14    8   25 1
  15   10   11 1
  16   10   26 1
  17   10   27 1
  18   11   12 1
  19   11   28 1
  20   11   29 1
  21   12   13 1
  22   12   15 1
  23   13   14 1
  24   13   30 1
  25   13   31 1
  26   14   16 1
  27   14   32 1
  28   15   33 1
  29   15   34 1
  30   15   35 1
  31   16   17 ar
  32   16   21 ar
  33   17   18 ar
  34   17   36 1
  35   18   19 ar
  36   18   37 1
  37   19   20 ar
  38   19   38 1
  39   20   21 ar
  40   20   22 1
  41   21   39 1
  42   22   40 1
  43   22   41 1
  44   22   42 1

#	End of record

