#	Name: ASD03091075
#	Creating user name:	WinNT
#	Creation time:	15. 06. 2019 20:30

#	Modifying user name:	WinNT
#	Modification time:	15. 06. 2019 20:30

#	Program:	/corina/corina34_cracker 3.40 0067  02.08.2006

@<TRIPOS>MOLECULE
ASD03091075
  27   28    0    0    0
SMALL
NO_CHARGES


@<TRIPOS>ATOM
   1 C1             1.1372    -0.5471     0.5985 C.ar    
   2 C2             0.0024    -0.0046     0.0091 C.ar    
   3 C3             0.0632     1.2510    -0.5818 C.ar    
   4 C4             1.2509     1.9558    -0.5815 C.ar    
   5 C5             2.3788     1.4128     0.0062 C.ar    
   6 C6             2.3217     0.1630     0.5954 C.ar    
   7 N7            -1.1982    -0.7211     0.0101 N.am    
   8 C8            -1.1815    -2.0643    -0.0990 C.2     
   9 C9            -2.3857    -2.7985     0.0152 C.2     
  10 O10           -0.1299    -2.6462    -0.2959 O.2     
  11 C11           -2.3689    -4.1504    -0.0946 C.2     
  12 H12           -3.3183    -2.2824     0.1898 H       
  13 C13           -3.5740    -4.8850     0.0197 C.2     
  14 H14           -1.4364    -4.6664    -0.2692 H       
  15 C15           -3.7022    -6.2556    -0.0708 C.2     
  16 C16           -5.0650    -6.5414     0.1023 C.2     
  17 C17           -5.7002    -5.3629     0.2872 C.2     
  18 O18           -4.8012    -4.3699     0.2424 O.3     
  19 H19            1.0921    -1.5212     1.0627 H       
  20 H20           -0.8172     1.6754    -1.0413 H       
  21 H21            1.2989     2.9320    -1.0411 H       
  22 H22            3.3064     1.9660     0.0048 H       
  23 H23            3.2043    -0.2581     1.0535 H       
  24 H24           -2.0432    -0.2514     0.0893 H       
  25 H25           -2.9093    -6.9687    -0.2420 H       
  26 H26           -5.5212    -7.5202     0.0897 H       
  27 H27           -6.7611    -5.2411     0.4487 H       
@<TRIPOS>BOND
   1    1    2 ar
   2    1    6 ar
   3    1   19 1
   4    2    3 ar
   5    2    7 1
   6    3    4 ar
   7    3   20 1
   8    4    5 ar
   9    4   21 1
  10    5    6 ar
  11    5   22 1
  12    6   23 1
  13    7    8 am
  14    7   24 1
  15    8    9 1
  16    8   10 2
  17    9   11 2
  18    9   12 1
  19   11   13 1
  20   11   14 1
  21   13   15 2
  22   13   18 1
  23   15   16 1
  24   15   25 1
  25   16   17 2
  26   16   26 1
  27   17   18 1
  28   17   27 1

#	End of record

