#	Name: ASD09200016
#	Creating user name:	WinNT
#	Creation time:	15. 06. 2019 21:21

#	Modifying user name:	WinNT
#	Modification time:	15. 06. 2019 21:21

#	Program:	/corina/corina34_cracker 3.40 0067  02.08.2006

@<TRIPOS>MOLECULE
ASD09200016
  40   42    0    0    0
SMALL
NO_CHARGES


@<TRIPOS>ATOM
   1 C1            -0.0158     1.3881     0.0600 C.ar    
   2 C2             0.0021    -0.0041     0.0020 C.ar    
   3 N3             1.1625    -0.6517    -0.0606 N.ar    
   4 C4             2.2946     0.0238    -0.0678 C.ar    
   5 C5             2.2763     1.4160    -0.0093 C.ar    
   6 N6             1.1190     2.0633     0.0528 N.ar    
   7 C7            -1.2717    -0.7633     0.0106 C.ar    
   8 C8            -2.2603    -0.4608     0.9457 C.ar    
   9 C9            -3.4441    -1.1698     0.9494 C.ar    
  10 C10           -3.6523    -2.1800     0.0274 C.ar    
  11 C11           -2.6754    -2.4864    -0.9036 C.ar    
  12 C12           -1.4875    -1.7788    -0.9204 C.ar    
  13 N13            3.4701     2.1271    -0.0160 N.3     
  14 C14            3.2219     3.5729     0.0517 C.3     
  15 C15            4.5446     4.3267    -0.1040 C.3     
  16 C16            5.5031     3.9017     1.0118 C.3     
  17 C17            5.7068     2.3854     0.9490 C.3     
  18 C18            4.3504     1.6878     1.0743 C.3     
  19 Cl19          -2.9443    -3.7563    -2.0563 Cl      
  20 Cl20          -0.2650    -2.1584    -2.0930 Cl      
  21 C21            6.8485     4.6064     0.8262 C.3     
  22 N22            4.9320     4.2668     2.3151 N.3     
  23 H23           -0.9575     1.9148     0.1064 H       
  24 H24            3.2366    -0.5020    -0.1186 H       
  25 H25           -2.0997     0.3272     1.6666 H       
  26 H26           -4.2099    -0.9357     1.6741 H       
  27 H27           -4.5806    -2.7319     0.0346 H       
  28 H28            2.5422     3.8626    -0.7496 H       
  29 H29            2.7743     3.8198     1.0144 H       
  30 H30            4.9860     4.0909    -1.0724 H       
  31 H31            4.3621     5.3993    -0.0381 H       
  32 H32            6.1665     2.1191    -0.0027 H       
  33 H33            6.3546     2.0710     1.7673 H       
  34 H34            3.8975     1.9436     2.0322 H       
  35 H35            4.4903     0.6085     1.0156 H       
  36 H36            6.7017     5.6857     0.8654 H       
  37 H37            7.5301     4.3033     1.6209 H       
  38 H38            7.2720     4.3322    -0.1400 H       
  39 H39            5.5470     3.9962     3.0679 H       
  40 H40            4.7238     5.2532     2.3551 H       
@<TRIPOS>BOND
   1    1    2 ar
   2    1    6 ar
   3    1   23 1
   4    2    3 ar
   5    2    7 1
   6    3    4 ar
   7    4    5 ar
   8    4   24 1
   9    5    6 ar
  10    5   13 1
  11    7    8 ar
  12    7   12 ar
  13    8    9 ar
  14    8   25 1
  15    9   10 ar
  16    9   26 1
  17   10   11 ar
  18   10   27 1
  19   11   12 ar
  20   11   19 1
  21   12   20 1
  22   13   14 1
  23   13   18 1
  24   14   15 1
  25   14   28 1
  26   14   29 1
  27   15   16 1
  28   15   30 1
  29   15   31 1
  30   16   17 1
  31   16   21 1
  32   16   22 1
  33   17   18 1
  34   17   32 1
  35   17   33 1
  36   18   34 1
  37   18   35 1
  38   21   36 1
  39   21   37 1
  40   21   38 1
  41   22   39 1
  42   22   40 1

#	End of record

