#	Name: ASD01420467
#	Creating user name:	WinNT
#	Creation time:	15. 06. 2019 19:20

#	Modifying user name:	WinNT
#	Modification time:	15. 06. 2019 19:20

#	Program:	/corina/corina34_cracker 3.40 0067  02.08.2006

@<TRIPOS>MOLECULE
ASD01420467
  54   57    0    0    0
SMALL
NO_CHARGES


@<TRIPOS>ATOM
   1 C1            -0.0178     1.4621     0.0101 C.3     
   2 N2             0.0021    -0.0041     0.0020 N.am    
   3 C3             1.4109    -0.4106    -0.0136 C.3     
   4 C4             2.2496     0.8424    -0.0149 C.ar    
   5 C5             3.6224     1.0209    -0.0275 C.ar    
   6 C6             4.1554     2.2954    -0.0257 C.ar    
   7 C7             3.3169     3.3945    -0.0117 C.ar    
   8 C8             1.9469     3.2171     0.0003 C.ar    
   9 C9             1.4122     1.9401    -0.0010 C.ar    
  10 C10           -1.0694    -0.8216     0.0083 C.2     
  11 O11           -0.9142    -2.0267     0.0007 O.2     
  12 O12           -2.3118    -0.3030     0.0228 O.3     
  13 C13            5.6501     2.4875    -0.0383 C.3     
  14 N14            6.1230     2.5572    -1.4274 N.3     
  15 C15            7.5298     2.9785    -1.4842 C.3     
  16 C16            8.0062     2.9618    -2.9386 C.3     
  17 N17            7.1587     3.8565    -3.7392 N.3     
  18 C18            5.7520     3.4352    -3.6824 C.3     
  19 C19            5.2756     3.4519    -2.2280 C.3     
  20 C20            7.6317     3.9262    -5.1283 C.3     
  21 C21           -3.4185    -1.2429     0.0288 C.3     
  22 C22           -4.7210    -0.4852     0.0452 C.ar    
  23 C23           -5.3300    -0.1317    -1.1444 C.ar    
  24 C24           -6.5248     0.5634    -1.1294 C.ar    
  25 C25           -7.1108     0.9046     0.0752 C.ar    
  26 C26           -6.5023     0.5503     1.2648 C.ar    
  27 C27           -5.3097    -0.1486     1.2498 C.ar    
  28 H28           -0.5370     1.8294    -0.8752 H       
  29 H29           -0.5199     1.8199     0.9090 H       
  30 H30            1.6341    -1.0037     0.8732 H       
  31 H31            1.6171    -0.9941    -0.9109 H       
  32 H32            4.2777     0.1625    -0.0383 H       
  33 H33            3.7326     4.3913    -0.0100 H       
  34 H34            1.2921     4.0758     0.0116 H       
  35 H35            5.9017     3.4139     0.4781 H       
  36 H36            6.1286     1.6485     0.4667 H       
  37 H37            7.6238     3.9874    -1.0823 H       
  38 H38            8.1387     2.2935    -0.8942 H       
  39 H39            9.0407     3.3018    -2.9863 H       
  40 H40            7.9378     1.9476    -3.3320 H       
  41 H41            5.1431     4.1202    -4.2724 H       
  42 H42            5.6580     2.4263    -4.0843 H       
  43 H43            4.2410     3.1119    -2.1803 H       
  44 H44            5.3440     4.4661    -1.8346 H       
  45 H45            7.6054     2.9307    -5.5714 H       
  46 H46            6.9868     4.5948    -5.6985 H       
  47 H47            8.6537     4.3048    -5.1455 H       
  48 H48           -3.3714    -1.8653    -0.8648 H       
  49 H49           -3.3542    -1.8742     0.9151 H       
  50 H50           -4.8721    -0.3982    -2.0855 H       
  51 H51           -7.0002     0.8403    -2.0587 H       
  52 H52           -8.0439     1.4483     0.0870 H       
  53 H53           -6.9600     0.8171     2.2059 H       
  54 H54           -4.8362    -0.4287     2.1791 H       
@<TRIPOS>BOND
   1    1    2 1
   2    1    9 1
   3    1   28 1
   4    1   29 1
   5    2    3 1
   6    2   10 am
   7    3    4 1
   8    3   30 1
   9    3   31 1
  10    4    5 ar
  11    4    9 ar
  12    5    6 ar
  13    5   32 1
  14    6    7 ar
  15    6   13 1
  16    7    8 ar
  17    7   33 1
  18    8    9 ar
  19    8   34 1
  20   10   11 2
  21   10   12 1
  22   12   21 1
  23   13   14 1
  24   13   35 1
  25   13   36 1
  26   14   15 1
  27   14   19 1
  28   15   16 1
  29   15   37 1
  30   15   38 1
  31   16   17 1
  32   16   39 1
  33   16   40 1
  34   17   18 1
  35   17   20 1
  36   18   19 1
  37   18   41 1
  38   18   42 1
  39   19   43 1
  40   19   44 1
  41   20   45 1
  42   20   46 1
  43   20   47 1
  44   21   22 1
  45   21   48 1
  46   21   49 1
  47   22   23 ar
  48   22   27 ar
  49   23   24 ar
  50   23   50 1
  51   24   25 ar
  52   24   51 1
  53   25   26 ar
  54   25   52 1
  55   26   27 ar
  56   26   53 1
  57   27   54 1

#	End of record

