#	Name: ASD05940050
#	Creating user name:	WinNT
#	Creation time:	15. 06. 2019 21:04

#	Modifying user name:	WinNT
#	Modification time:	15. 06. 2019 21:04

#	Program:	/corina/corina34_cracker 3.40 0067  02.08.2006

@<TRIPOS>MOLECULE
ASD05940050
  66   69    0    0    0
SMALL
NO_CHARGES


@<TRIPOS>ATOM
   1 N1            -0.0159     1.3181     0.0093 N.ar    
   2 C2             0.0021    -0.0041     0.0020 C.ar    
   3 N3             1.1319    -0.6930    -0.0101 N.ar    
   4 C4             2.3066    -0.0681    -0.0158 C.ar    
   5 C5             2.3274     1.3257    -0.0126 C.ar    
   6 C6             1.1197     2.0168     0.0022 C.ar    
   7 N7             3.4912    -0.7843    -0.0194 N.3     
   8 C8             4.5325    -0.1239    -0.8126 C.3     
   9 C9             4.6626     1.3202    -0.4024 C.2     
  10 N10            3.5574     2.0048    -0.0283 N.am    
  11 N11            1.0976     3.4049     0.0085 N.pl3   
  12 O12           -1.1750    -0.6756     0.0076 O.3     
  13 C13            3.2722    -2.1617    -0.4807 C.3     
  14 O14            5.7473     1.8634    -0.4080 O.2     
  15 C15           -2.3694     0.1089     0.0211 C.3     
  16 C16           -3.5876    -0.8168     0.0256 C.3     
  17 C17           -4.8663     0.0231     0.0401 C.3     
  18 C18           -6.0845    -0.9026     0.0446 C.3     
  19 C19            4.6022    -2.8335    -0.7061 C.ar    
  20 C20            5.2124    -3.5217     0.3255 C.ar    
  21 C21            6.4327    -4.1380     0.1188 C.ar    
  22 C22            7.0420    -4.0662    -1.1197 C.ar    
  23 C23            6.4312    -3.3785    -2.1519 C.ar    
  24 C24            5.2093    -2.7662    -1.9464 C.ar    
  25 C25            7.0958    -3.2999    -3.5021 C.3     
  26 N26            6.6614    -4.4341    -4.3286 N.3     
  27 C27            7.0964    -4.2675    -5.7212 C.3     
  28 C28            6.5051    -5.3884    -6.5792 C.3     
  29 C29            6.9740    -6.7413    -6.0367 C.3     
  30 C30            6.5504    -6.8691    -4.5708 C.3     
  31 C31            7.1403    -5.7054    -3.7711 C.3     
  32 C32            6.3470    -7.8510    -6.8407 C.2     
  33 O33            6.6169    -9.1314    -6.5419 O.3     
  34 O34            5.6013    -7.5881    -7.7544 O.2     
  35 H35            5.4840    -0.6315    -0.6537 H       
  36 H36            4.2697    -0.1768    -1.8692 H       
  37 H37            3.6126     2.9403     0.2223 H       
  38 H38            1.9298     3.9032     0.0026 H       
  39 H39            0.2500     3.8765     0.0188 H       
  40 H40            2.7102    -2.7125     0.2736 H       
  41 H41            2.7096    -2.1471    -1.4142 H       
  42 H42           -2.3840     0.7330     0.9146 H       
  43 H43           -2.3979     0.7426    -0.8653 H       
  44 H44           -3.5729    -1.4409    -0.8679 H       
  45 H45           -3.5591    -1.4505     0.9120 H       
  46 H46           -4.8810     0.6473     0.9336 H       
  47 H47           -4.8948     0.6569    -0.8463 H       
  48 H48           -6.9955    -0.3042     0.0549 H       
  49 H49           -6.0698    -1.5267    -0.8489 H       
  50 H50           -6.0560    -1.5363     0.9309 H       
  51 H51            4.7363    -3.5778     1.2933 H       
  52 H52            6.9099    -4.6751     0.9251 H       
  53 H53            7.9956    -4.5470    -1.2811 H       
  54 H54            4.7321    -2.2290    -2.7527 H       
  55 H55            6.8167    -2.3664    -3.9907 H       
  56 H56            8.1780    -3.3350    -3.3770 H       
  57 H57            6.7530    -3.3034    -6.0962 H       
  58 H58            8.1846    -4.3090    -5.7692 H       
  59 H59            5.4169    -5.3390    -6.5427 H       
  60 H60            6.8409    -5.2734    -7.6098 H       
  61 H61            8.0597    -6.8063    -6.1091 H       
  62 H62            5.4628    -6.8431    -4.5028 H       
  63 H63            6.9184    -7.8121    -4.1666 H       
  64 H64            8.2283    -5.7401    -3.8282 H       
  65 H65            6.8288    -5.7855    -2.7296 H       
  66 H66            6.1913    -9.8083    -7.0858 H       
@<TRIPOS>BOND
   1    1    2 ar
   2    1    6 ar
   3    2    3 ar
   4    2   12 1
   5    3    4 ar
   6    4    5 ar
   7    4    7 1
   8    5    6 ar
   9    5   10 1
  10    6   11 1
  11    7    8 1
  12    7   13 1
  13    8    9 1
  14    8   35 1
  15    8   36 1
  16    9   10 am
  17    9   14 2
  18   10   37 1
  19   11   38 1
  20   11   39 1
  21   12   15 1
  22   13   19 1
  23   13   40 1
  24   13   41 1
  25   15   16 1
  26   15   42 1
  27   15   43 1
  28   16   17 1
  29   16   44 1
  30   16   45 1
  31   17   18 1
  32   17   46 1
  33   17   47 1
  34   18   48 1
  35   18   49 1
  36   18   50 1
  37   19   20 ar
  38   19   24 ar
  39   20   21 ar
  40   20   51 1
  41   21   22 ar
  42   21   52 1
  43   22   23 ar
  44   22   53 1
  45   23   24 ar
  46   23   25 1
  47   24   54 1
  48   25   26 1
  49   25   55 1
  50   25   56 1
  51   26   27 1
  52   26   31 1
  53   27   28 1
  54   27   57 1
  55   27   58 1
  56   28   29 1
  57   28   59 1
  58   28   60 1
  59   29   30 1
  60   29   32 1
  61   29   61 1
  62   30   31 1
  63   30   62 1
  64   30   63 1
  65   31   64 1
  66   31   65 1
  67   32   33 1
  68   32   34 2
  69   33   66 1

#	End of record

