#	Name: ASD06170172
#	Creating user name:	WinNT
#	Creation time:	15. 06. 2019 21:05

#	Modifying user name:	WinNT
#	Modification time:	15. 06. 2019 21:05

#	Program:	/corina/corina34_cracker 3.40 0067  02.08.2006

@<TRIPOS>MOLECULE
ASD06170172
  66   70    0    0    0
SMALL
NO_CHARGES


@<TRIPOS>ATOM
   1 N1            -0.2077     1.1502    -0.2902 N.pl3   
   2 N2            -0.3509    -0.1473     0.2103 N.am    
   3 C3             0.8532    -0.5765     0.6419 C.2     
   4 C4             1.8016     0.5210     0.3945 C.2     
   5 C5             1.0748     1.5457    -0.1793 C.2     
   6 C6             3.2378     0.5258     0.6978 C.2     
   7 O7             3.9108     1.5064     0.4402 O.2     
   8 N8             3.8110    -0.5558     1.2617 N.am    
   9 C9            -1.2910     1.9575    -0.8569 C.3     
  10 C10           -1.8515     2.8876     0.2209 C.3     
  11 C11           -2.9828     3.7307    -0.3710 C.3     
  12 C12           -1.5428    -0.8778     0.2563 C.ar    
  13 C13           -2.4116    -0.8610    -0.8272 C.ar    
  14 C14           -3.5874    -1.5838    -0.7788 C.ar    
  15 C15           -3.9003    -2.3234     0.3470 C.ar    
  16 C16           -3.0376    -2.3420     1.4276 C.ar    
  17 C17           -1.8573    -1.6263     1.3831 C.ar    
  18 O18            1.1052    -1.6585     1.1386 O.2     
  19 C19            5.2039    -0.6215     1.3935 C.ar    
  20 C20            5.9460     0.5466     1.5113 C.ar    
  21 C21            7.3187     0.4822     1.6408 C.ar    
  22 C22            7.9580    -0.7513     1.6537 C.ar    
  23 C23            7.2153    -1.9197     1.5363 C.ar    
  24 C24            5.8421    -1.8549     1.4122 C.ar    
  25 S25            9.7104    -0.8339     1.8184 S.3     
  26 N26           10.0295    -1.3782     6.3055 N.ar    
  27 C27            8.8586    -1.1761     5.7462 C.ar    
  28 C28            8.7212    -1.0058     4.3764 C.ar    
  29 C29            9.8441    -1.0464     3.5624 C.ar    
  30 C30           11.1007    -1.2644     4.1771 C.ar    
  31 C31           12.2798    -1.3188     3.4215 C.ar    
  32 C32           13.4732    -1.5303     4.0418 C.ar    
  33 C33           13.5388    -1.6948     5.4280 C.ar    
  34 C34           12.3979    -1.6466     6.1974 C.ar    
  35 C35           11.1549    -1.4297     5.5822 C.ar    
  36 O36           14.7416    -1.9051     6.0231 O.3     
  37 C37           15.8885    -1.9452     5.1715 C.3     
  38 C38            1.6245     2.8812    -0.6098 C.3     
  39 H39            3.2590    -1.2887     1.5763 H       
  40 H40           -0.9059     2.5520    -1.6854 H       
  41 H41           -2.0827     1.3010    -1.2179 H       
  42 H42           -2.2366     2.2931     1.0494 H       
  43 H43           -1.0597     3.5440     0.5819 H       
  44 H44           -3.3821     4.3933     0.3969 H       
  45 H45           -2.5977     4.3251    -1.1995 H       
  46 H46           -3.7745     3.0742    -0.7320 H       
  47 H47           -2.1682    -0.2830    -1.7064 H       
  48 H48           -4.2635    -1.5711    -1.6209 H       
  49 H49           -4.8206    -2.8875     0.3825 H       
  50 H50           -3.2852    -2.9200     2.3056 H       
  51 H51           -1.1816    -1.6450     2.2255 H       
  52 H52            5.4490     1.5054     1.5012 H       
  53 H53            7.8958     1.3905     1.7316 H       
  54 H54            7.7120    -2.8787     1.5460 H       
  55 H55            5.2644    -2.7632     1.3250 H       
  56 H56            7.9777    -1.1427     6.3702 H       
  57 H57            7.7445    -0.8417     3.9455 H       
  58 H58           12.2418    -1.1934     2.3494 H       
  59 H59           14.3794    -1.5719     3.4558 H       
  60 H60           12.4591    -1.7745     7.2680 H       
  61 H61           16.7812    -2.1192     5.7723 H       
  62 H62           15.7751    -2.7517     4.4471 H       
  63 H63           15.9840    -0.9952     4.6457 H       
  64 H64            1.5585     3.5856     0.2194 H       
  65 H65            2.6670     2.7664    -0.9068 H       
  66 H66            1.0457     3.2577    -1.4532 H       
@<TRIPOS>BOND
   1    1    2 1
   2    1    5 1
   3    1    9 1
   4    2    3 am
   5    2   12 1
   6    3    4 1
   7    3   18 2
   8    4    5 2
   9    4    6 1
  10    5   38 1
  11    6    7 2
  12    6    8 am
  13    8   19 1
  14    8   39 1
  15    9   10 1
  16    9   40 1
  17    9   41 1
  18   10   11 1
  19   10   42 1
  20   10   43 1
  21   11   44 1
  22   11   45 1
  23   11   46 1
  24   12   13 ar
  25   12   17 ar
  26   13   14 ar
  27   13   47 1
  28   14   15 ar
  29   14   48 1
  30   15   16 ar
  31   15   49 1
  32   16   17 ar
  33   16   50 1
  34   17   51 1
  35   19   20 ar
  36   19   24 ar
  37   20   21 ar
  38   20   52 1
  39   21   22 ar
  40   21   53 1
  41   22   23 ar
  42   22   25 1
  43   23   24 ar
  44   23   54 1
  45   24   55 1
  46   25   29 1
  47   26   27 ar
  48   26   35 ar
  49   27   28 ar
  50   27   56 1
  51   28   29 ar
  52   28   57 1
  53   29   30 ar
  54   30   31 ar
  55   30   35 ar
  56   31   32 ar
  57   31   58 1
  58   32   33 ar
  59   32   59 1
  60   33   34 ar
  61   33   36 1
  62   34   35 ar
  63   34   60 1
  64   36   37 1
  65   37   61 1
  66   37   62 1
  67   37   63 1
  68   38   64 1
  69   38   65 1
  70   38   66 1

#	End of record

