#	Name: ASD03090345
#	Creating user name:	WinNT
#	Creation time:	15. 06. 2019 20:28

#	Modifying user name:	WinNT
#	Modification time:	15. 06. 2019 20:28

#	Program:	/corina/corina34_cracker 3.40 0067  02.08.2006

@<TRIPOS>MOLECULE
ASD03090345
  45   48    0    0    0
SMALL
NO_CHARGES


@<TRIPOS>ATOM
   1 N1            -0.0132     1.1311     1.2679 N.ar    
   2 C2             0.0498    -0.1866     1.2609 C.ar    
   3 C3             1.2395    -0.8376     1.0073 C.ar    
   4 C4             2.3877    -0.0788     0.7551 C.ar    
   5 C5             2.2746     1.3153     0.7721 C.ar    
   6 C6             1.0448     1.8836     1.0353 C.ar    
   7 C7             3.6862    -0.7332     0.4785 C.2     
   8 N8             5.7108    -3.4478    -0.4621 N.pl3   
   9 C9             4.8739    -4.5017    -0.8468 C.ar    
  10 C10            3.6686    -4.2348    -1.4819 C.ar    
  11 C11            2.8409    -5.2782    -1.8621 C.ar    
  12 C12            3.2200    -6.5937    -1.6062 C.ar    
  13 C13            4.4233    -6.8559    -0.9716 C.ar    
  14 C14            5.2517    -5.8148    -0.5982 C.ar    
  15 N15            3.8585    -1.9815     0.0929 N.2     
  16 C16            5.1597    -2.2289    -0.0625 C.2     
  17 N17            5.8394    -1.1414     0.2218 N.2     
  18 N18            4.9039    -0.1541     0.5712 N.pl3   
  19 C19            5.1914     1.2273     0.9654 C.3     
  20 C20            5.2377     2.1006    -0.2618 C.2     
  21 N21            5.4887     3.4193    -0.1414 N.am    
  22 O22            1.6281    -5.2875    -2.4885 O.3     
  23 C23            1.4589    -6.6304    -2.9796 C.3     
  24 O24            2.2436    -7.4275    -2.0730 O.3     
  25 F25            0.1126    -7.0072    -2.9265 F       
  26 F26            1.9509    -6.7422    -4.2845 F       
  27 C27           -1.1944    -0.9917     1.5341 C.3     
  28 O28            5.0493     1.6168    -1.3579 O.2     
  29 C29            5.5338     4.2683    -1.3345 C.3     
  30 H30            1.2839    -1.9167     1.0038 H       
  31 H31            3.1367     1.9376     0.5828 H       
  32 H32            0.9473     2.9591     1.0506 H       
  33 H33            6.6738    -3.5643    -0.4733 H       
  34 H34            3.3763    -3.2140    -1.6791 H       
  35 H35            4.7169    -7.8761    -0.7730 H       
  36 H36            6.1891    -6.0220    -0.1036 H       
  37 H37            4.4095     1.5840     1.6359 H       
  38 H38            6.1536     1.2667     1.4760 H       
  39 H39            5.6394     3.8063     0.7352 H       
  40 H40           -1.7117    -1.1909     0.5955 H       
  41 H41           -0.9203    -1.9357     2.0052 H       
  42 H42           -1.8513    -0.4310     2.1991 H       
  43 H43            5.7476     5.2961    -1.0412 H       
  44 H44            6.3157     3.9116    -2.0049 H       
  45 H45            4.5715     4.2289    -1.8451 H       
@<TRIPOS>BOND
   1    1    2 ar
   2    1    6 ar
   3    2    3 ar
   4    2   27 1
   5    3    4 ar
   6    3   30 1
   7    4    5 ar
   8    4    7 1
   9    5    6 ar
  10    5   31 1
  11    6   32 1
  12    7   15 2
  13    7   18 1
  14    8    9 1
  15    8   16 1
  16    8   33 1
  17    9   10 ar
  18    9   14 ar
  19   10   11 ar
  20   10   34 1
  21   11   12 ar
  22   11   22 1
  23   12   13 ar
  24   12   24 1
  25   13   14 ar
  26   13   35 1
  27   14   36 1
  28   15   16 1
  29   16   17 2
  30   17   18 1
  31   18   19 1
  32   19   20 1
  33   19   37 1
  34   19   38 1
  35   20   21 am
  36   20   28 2
  37   21   29 1
  38   21   39 1
  39   22   23 1
  40   23   24 1
  41   23   25 1
  42   23   26 1
  43   27   40 1
  44   27   41 1
  45   27   42 1
  46   29   43 1
  47   29   44 1
  48   29   45 1

#	End of record

