#	Name: ASD01914949
#	Creating user name:	WinNT
#	Creation time:	15. 06. 2019 20:04

#	Modifying user name:	WinNT
#	Modification time:	15. 06. 2019 20:04

#	Program:	/corina/corina34_cracker 3.40 0067  02.08.2006

@<TRIPOS>MOLECULE
ASD01914949
  62   66    0    0    0
SMALL
NO_CHARGES


@<TRIPOS>ATOM
   1 C1             0.0022     1.3389    -0.0247 C.2     
   2 N2             0.0078     0.0667     0.3146 N.2     
   3 C3             1.3179     1.7172    -0.3408 C.2     
   4 C4             2.1163     0.6230    -0.1785 C.2     
   5 N5             1.3223    -0.4088     0.2271 N.pl3   
   6 C6            -1.1909     2.2207    -0.0715 C.ar    
   7 C7            -2.4459     1.7164     0.2628 C.ar    
   8 C8            -3.5524     2.5396     0.2179 C.ar    
   9 C9            -3.4168     3.8658    -0.1592 C.ar    
  10 C10           -2.1707     4.3713    -0.4924 C.ar    
  11 C11           -1.0581     3.5566    -0.4442 C.ar    
  12 C12            3.5781     0.5661    -0.4020 C.ar    
  13 C13            1.7660    -1.7740     0.5197 C.3     
  14 C14            2.0392    -1.9079     1.9956 C.2     
  15 N15            2.4615    -3.0847     2.4988 N.am    
  16 O16            1.8790    -0.9566     2.7307 O.2     
  17 C17            2.7324    -3.2328     3.9347 C.3     
  18 C18            4.1773    -3.6996     4.1307 C.3     
  19 C19            4.3886    -5.0267     3.3944 C.3     
  20 C20            4.0206    -4.8364     1.9389 C.2     
  21 C21            2.6552    -4.2511     1.6219 C.3     
  22 C22            4.3446    -0.4148     0.2275 C.ar    
  23 C23            5.7068    -0.4639     0.0155 C.ar    
  24 C24            6.3138     0.4590    -0.8211 C.ar    
  25 C25            5.5568     1.4353    -1.4488 C.ar    
  26 C26            4.1932     1.4896    -1.2475 C.ar    
  27 C27            5.8340    -5.4395     3.5008 C.ar    
  28 C28            6.8260    -4.6182     2.9970 C.ar    
  29 C29            6.1673    -6.6352     4.1065 C.ar    
  30 C30            7.4984    -7.0147     4.2042 C.ar    
  31 C31            8.4911    -6.1918     3.6929 C.ar    
  32 C32            8.1528    -4.9942     3.0926 C.ar    
  33 F33           -4.5029     4.6681    -0.2027 F       
  34 F34            7.6483     0.4071    -1.0251 F       
  35 O35            4.7875    -5.1430     1.0579 O.2     
  36 O36            7.8289    -8.1905     4.8001 O.3     
  37 C37            9.2187    -8.5167     4.8650 C.3     
  38 H38            1.6396     2.6987    -0.6563 H       
  39 H39           -2.5526     0.6825     0.5562 H       
  40 H40           -4.5256     2.1494     0.4769 H       
  41 H41           -2.0694     5.4056    -0.7862 H       
  42 H42           -0.0870     3.9516    -0.7038 H       
  43 H43            0.9875    -2.4792     0.2288 H       
  44 H44            2.6770    -1.9876    -0.0393 H       
  45 H45            2.5889    -2.2740     4.4329 H       
  46 H46            2.0510    -3.9699     4.3595 H       
  47 H47            4.8591    -2.9493     3.7305 H       
  48 H48            4.3732    -3.8386     5.1939 H       
  49 H49            3.7529    -5.7947     3.8350 H       
  50 H50            1.8812    -4.9952     1.8101 H       
  51 H51            2.6209    -3.9365     0.5788 H       
  52 H52            3.8725    -1.1343     0.8800 H       
  53 H53            6.3012    -1.2226     0.5027 H       
  54 H54            6.0346     2.1523    -2.0999 H       
  55 H55            3.6040     2.2507    -1.7375 H       
  56 H56            6.5636    -3.6815     2.5276 H       
  57 H57            5.3926    -7.2741     4.5041 H       
  58 H58            9.5279    -6.4848     3.7680 H       
  59 H59            8.9254    -4.3531     2.6944 H       
  60 H60            9.3433    -9.4780     5.3635 H       
  61 H61            9.6257    -8.5754     3.8556 H       
  62 H62            9.7471    -7.7456     5.4256 H       
@<TRIPOS>BOND
   1    1    2 2
   2    1    3 1
   3    1    6 1
   4    2    5 1
   5    3    4 2
   6    3   38 1
   7    4    5 1
   8    4   12 1
   9    5   13 1
  10    6    7 ar
  11    6   11 ar
  12    7    8 ar
  13    7   39 1
  14    8    9 ar
  15    8   40 1
  16    9   10 ar
  17    9   33 1
  18   10   11 ar
  19   10   41 1
  20   11   42 1
  21   12   22 ar
  22   12   26 ar
  23   13   14 1
  24   13   43 1
  25   13   44 1
  26   14   15 am
  27   14   16 2
  28   15   17 1
  29   15   21 1
  30   17   18 1
  31   17   45 1
  32   17   46 1
  33   18   19 1
  34   18   47 1
  35   18   48 1
  36   19   20 1
  37   19   27 1
  38   19   49 1
  39   20   21 1
  40   20   35 2
  41   21   50 1
  42   21   51 1
  43   22   23 ar
  44   22   52 1
  45   23   24 ar
  46   23   53 1
  47   24   25 ar
  48   24   34 1
  49   25   26 ar
  50   25   54 1
  51   26   55 1
  52   27   28 ar
  53   27   29 ar
  54   28   32 ar
  55   28   56 1
  56   29   30 ar
  57   29   57 1
  58   30   31 ar
  59   30   36 1
  60   31   32 ar
  61   31   58 1
  62   32   59 1
  63   36   37 1
  64   37   60 1
  65   37   61 1
  66   37   62 1

#	End of record

