#	Name: ASD00171051
#	Creating user name:	WinNT
#	Creation time:	15. 06. 2019 18:32

#	Modifying user name:	WinNT
#	Modification time:	15. 06. 2019 18:32

#	Program:	/corina/corina34_cracker 3.40 0067  02.08.2006

@<TRIPOS>MOLECULE
ASD00171051
  58   61    0    0    0
SMALL
NO_CHARGES


@<TRIPOS>ATOM
   1 C1            -0.0062     1.4151    -0.1451 C.ar    
   2 C2            -0.1099     0.0292    -0.0573 C.ar    
   3 C3            -1.3377    -0.5665    -0.0045 C.ar    
   4 C4            -2.4988     0.2156    -0.0391 C.ar    
   5 C5            -2.3972     1.6104    -0.1274 C.ar    
   6 C6            -1.1563     2.2036    -0.1743 C.ar    
   7 Cl7           -1.0227     3.9310    -0.2833 Cl      
   8 C8            -3.8194    -0.4244     0.0166 C.2     
   9 C9            -4.9385     0.3319    -0.0168 C.2     
  10 C10           -6.2528    -0.3050     0.0386 C.2     
  11 N11           -7.3657     0.4516     0.1131 N.am    
  12 O12           -6.3423    -1.5189     0.0175 O.2     
  13 C13           -7.2697     1.9107     0.2602 C.3     
  14 C14           -8.0624     2.5709    -0.8747 C.3     
  15 N15           -9.3937     1.9516    -0.9397 N.am    
  16 C16           -9.4897     0.4925    -1.0867 C.3     
  17 C17           -8.6969    -0.1671     0.0425 C.3     
  18 S18            1.5821     2.1750    -0.2121 S.3     
  19 C19            1.7693     2.5519    -1.9231 C.ar    
  20 C20          -10.5065     2.7082    -0.8652 C.2     
  21 C21          -11.8627     2.0521    -0.8295 C.3     
  22 O22          -10.4165     3.9171    -0.8269 O.2     
  23 C23            0.7265     2.3225    -2.8045 C.ar    
  24 C24            0.8650     2.6168    -4.1533 C.ar    
  25 C25            2.0325     3.1379    -4.6352 C.ar    
  26 C26            3.1003     3.3785    -3.7651 C.ar    
  27 C27            2.9694     3.0894    -2.3969 C.ar    
  28 C28            4.4530     3.9130    -3.9385 C.2     
  29 C29            5.0341     3.9114    -2.7281 C.2     
  30 N30            4.1625     3.4233    -1.7940 N.pl3   
  31 C31            4.9302     1.8495    -0.0867 C.3     
  32 C32            4.4542     3.2765    -0.3659 C.3     
  33 H33            0.7837    -0.5767    -0.0311 H       
  34 H34           -1.4133    -1.6417     0.0636 H       
  35 H35           -3.2897     2.2180    -0.1547 H       
  36 H36           -3.8961    -1.4995     0.0844 H       
  37 H37           -4.8618     1.4070    -0.0845 H       
  38 H38           -7.6884     2.2098     1.2210 H       
  39 H39           -6.2250     2.2162     0.2025 H       
  40 H40           -8.1646     3.6379    -0.6770 H       
  41 H41           -7.5421     2.4197    -1.8205 H       
  42 H42          -10.5344     0.1869    -1.0291 H       
  43 H43           -9.0709     0.1933    -2.0476 H       
  44 H44           -8.5955    -1.2340    -0.1564 H       
  45 H45           -9.2150    -0.0167     0.9896 H       
  46 H46          -12.1014     1.7665     0.1950 H       
  47 H47          -12.6143     2.7512    -1.1963 H       
  48 H48          -11.8535     1.1641    -1.4615 H       
  49 H49           -0.2026     1.9107    -2.4391 H       
  50 H50            0.0426     2.4320    -4.8285 H       
  51 H51            2.1306     3.3632    -5.6868 H       
  52 H52            4.8986     4.2451    -4.8645 H       
  53 H53            6.0395     4.2477    -2.5222 H       
  54 H54            4.1503     1.1437    -0.3727 H       
  55 H55            5.8323     1.6479    -0.6644 H       
  56 H56            5.1473     1.7402     0.9759 H       
  57 H57            5.2341     3.9822    -0.0799 H       
  58 H58            3.5521     3.4781     0.2118 H       
@<TRIPOS>BOND
   1    1    2 ar
   2    1   18 1
   3    1    6 ar
   4    2    3 ar
   5    2   33 1
   6    3    4 ar
   7    3   34 1
   8    4    5 ar
   9    4    8 1
  10    5    6 ar
  11    5   35 1
  12    6    7 1
  13    8    9 2
  14    8   36 1
  15    9   10 1
  16    9   37 1
  17   10   11 am
  18   10   12 2
  19   11   13 1
  20   11   17 1
  21   13   14 1
  22   13   38 1
  23   13   39 1
  24   14   15 1
  25   14   40 1
  26   14   41 1
  27   15   16 1
  28   15   20 am
  29   16   17 1
  30   16   42 1
  31   16   43 1
  32   17   44 1
  33   17   45 1
  34   18   19 1
  35   19   23 ar
  36   19   27 ar
  37   20   21 1
  38   20   22 2
  39   21   46 1
  40   21   47 1
  41   21   48 1
  42   23   24 ar
  43   23   49 1
  44   24   25 ar
  45   24   50 1
  46   25   26 ar
  47   25   51 1
  48   26   27 ar
  49   26   28 1
  50   27   30 1
  51   28   29 2
  52   28   52 1
  53   29   30 1
  54   29   53 1
  55   30   32 1
  56   31   32 1
  57   31   54 1
  58   31   55 1
  59   31   56 1
  60   32   57 1
  61   32   58 1

#	End of record

