#	Name: ASD09740027
#	Creating user name:	WinNT
#	Creation time:	15. 06. 2019 21:22

#	Modifying user name:	WinNT
#	Modification time:	15. 06. 2019 21:22

#	Program:	/corina/corina34_cracker 3.40 0067  02.08.2006

@<TRIPOS>MOLECULE
ASD09740027
  49   52    0    0    0
SMALL
NO_CHARGES


@<TRIPOS>ATOM
   1 N1            -0.0144     1.2085     0.0087 N.2     
   2 O2             0.0021    -0.0041     0.0020 O.3     
   3 C3             1.2060     1.6802    -0.0004 C.2     
   4 N4             2.0461     0.6244    -0.0141 N.2     
   5 C5             1.2702    -0.4440    -0.0125 C.2     
   6 C6             1.7127    -1.8530    -0.0235 C.ar    
   7 C7             1.5947     3.1129     0.0031 C.ar    
   8 C8             3.0754    -2.1583    -0.0374 C.ar    
   9 C9             0.7694    -2.8829    -0.0144 C.ar    
  10 C10            1.1885    -4.1997    -0.0248 C.ar    
  11 C11            2.5497    -4.4975    -0.0444 C.ar    
  12 C12            3.4869    -3.4740    -0.0482 C.ar    
  13 C13            2.9406     3.4694    -0.0083 C.ar    
  14 C14            3.2969     4.8026    -0.0050 C.ar    
  15 C15            2.3201     5.7805     0.0095 C.ar    
  16 C16            0.9786     5.4335     0.0211 C.ar    
  17 C17            0.6116     4.1027     0.0121 C.ar    
  18 C18           -0.2588     6.3055     0.0383 C.3     
  19 C19           -1.4133     5.3771    -0.3948 C.3     
  20 C20           -0.8974     3.9866     0.0281 C.3     
  21 O21           -0.4936     6.8072     1.3555 O.3     
  22 O22            0.2726    -5.2050    -0.0155 O.3     
  23 C23           -1.9787    -6.0832     0.0129 C.3     
  24 C24           -1.1054    -4.8270     0.0051 C.3     
  25 O25            2.9603    -5.7926    -0.0543 O.3     
  26 C26            4.6372    -7.5326    -0.0829 C.3     
  27 C27            4.3699    -6.0262    -0.0743 C.3     
  28 H28            3.8068    -1.3637    -0.0400 H       
  29 H29           -0.2852    -2.6507     0.0012 H       
  30 H30            4.5410    -3.7087    -0.0634 H       
  31 H31            3.7034     2.7049    -0.0193 H       
  32 H32            4.3400     5.0822    -0.0135 H       
  33 H33            2.6045     6.8223     0.0123 H       
  34 H34           -0.1509     7.1292    -0.6674 H       
  35 H35           -2.3324     5.6289     0.1342 H       
  36 H36           -1.5615     5.4205    -1.4738 H       
  37 H37           -1.2264     3.2287    -0.6828 H       
  38 H38           -1.2469     3.7425     1.0313 H       
  39 H39            0.2201     7.3628     1.6978 H       
  40 H40           -3.0298    -5.7949     0.0287 H       
  41 H41           -1.7768    -6.6717    -0.8820 H       
  42 H42           -1.7519    -6.6779     0.8978 H       
  43 H43           -1.3073    -4.2385     0.9001 H       
  44 H44           -1.3322    -4.2323    -0.8797 H       
  45 H45            4.1826    -7.9773    -0.9681 H       
  46 H46            5.7124    -7.7108    -0.0982 H       
  47 H47            4.2070    -7.9830     0.8116 H       
  48 H48            4.8001    -5.5757    -0.9689 H       
  49 H49            4.8245    -5.5815     0.8109 H       
@<TRIPOS>BOND
   1    1    2 1
   2    1    3 2
   3    2    5 1
   4    3    4 1
   5    3    7 1
   6    4    5 2
   7    5    6 1
   8    6    8 ar
   9    6    9 ar
  10    7   13 ar
  11    7   17 ar
  12    8   12 ar
  13    8   28 1
  14    9   10 ar
  15    9   29 1
  16   10   11 ar
  17   10   22 1
  18   11   12 ar
  19   11   25 1
  20   12   30 1
  21   13   14 ar
  22   13   31 1
  23   14   15 ar
  24   14   32 1
  25   15   16 ar
  26   15   33 1
  27   16   17 ar
  28   16   18 1
  29   17   20 1
  30   18   19 1
  31   18   21 1
  32   18   34 1
  33   19   20 1
  34   19   35 1
  35   19   36 1
  36   20   37 1
  37   20   38 1
  38   21   39 1
  39   22   24 1
  40   23   24 1
  41   23   40 1
  42   23   41 1
  43   23   42 1
  44   24   43 1
  45   24   44 1
  46   25   27 1
  47   26   27 1
  48   26   45 1
  49   26   46 1
  50   26   47 1
  51   27   48 1
  52   27   49 1

#	End of record

