#	Name: ASD08178131
#	Creating user name:	WinNT
#	Creation time:	15. 06. 2019 21:18

#	Modifying user name:	WinNT
#	Modification time:	15. 06. 2019 21:18

#	Program:	/corina/corina34_cracker 3.40 0067  02.08.2006

@<TRIPOS>MOLECULE
ASD08178131
  74   79    0    0    0
SMALL
NO_CHARGES


@<TRIPOS>ATOM
   1 C1            -0.0184     1.5028     0.0103 C.2     
   2 C2             0.0021    -0.0041     0.0020 C.3     
   3 C3             0.0221    -0.5218     1.4416 C.3     
   4 C4             0.0429    -2.0516     1.4332 C.3     
   5 C5             0.0630    -2.5693     2.8728 C.3     
   6 C6             0.0834    -4.0761     2.8645 C.2     
   7 N7             1.1396    -4.8258     2.8513 N.2     
   8 N8             0.9467    -6.0734     2.8463 N.2     
   9 C9            -0.2824    -6.4936     2.8547 C.2     
  10 S10           -1.3267    -5.1359     2.8788 S.3     
  11 N11           -0.6838    -7.8252     2.8506 N.am    
  12 N12            1.0171     2.2809     0.0046 N.2     
  13 C13            0.2391    -8.8073     2.8374 C.2     
  14 O14            1.4197    -8.5298     2.8290 O.2     
  15 C15           -0.1960   -10.2501     2.8329 C.3     
  16 C16            1.0193   -11.1412     2.8177 C.ar    
  17 N17            0.7904     3.5228     0.0134 N.2     
  18 C18           -0.4495     3.9094     0.0274 C.2     
  19 S19           -1.4568     2.5237     0.0218 S.3     
  20 C20            2.6812   -12.3604     1.5950 C.ar    
  21 C21            1.5857   -11.5558     4.0073 C.ar    
  22 C22            2.7051   -12.3766     3.9925 C.ar    
  23 C23            3.2520   -12.7783     2.7813 C.ar    
  24 C24            1.5628   -11.5474     1.6129 C.ar    
  25 N25            3.2826   -12.7988     5.1983 N.pl3   
  26 N26           -0.8870     5.2295     0.0390 N.am    
  27 C27            0.0089     6.2364     0.0358 C.2     
  28 O28            1.1967     5.9912     0.0228 O.2     
  29 C29           -0.4651     7.6668     0.0485 C.3     
  30 C30            0.7256     8.5906     0.0419 C.ar    
  31 C31            1.2594     9.0207    -1.1589 C.ar    
  32 C32            2.3522     9.8681    -1.1689 C.ar    
  33 C33            2.9136    10.2873     0.0213 C.ar    
  34 C34            2.3795     9.8576     1.2285 C.ar    
  35 C35            1.2789     9.0114     1.2355 C.ar    
  36 N36            2.9472    10.2814     2.4383 N.pl3   
  37 C37            4.0230    11.1132     2.5649 C.2     
  38 C38            4.2685    11.2871     3.8794 C.2     
  39 C39            3.3113    10.5367     4.5915 C.2     
  40 C40            2.5128     9.9359     3.6861 C.2     
  41 C41            4.3798   -13.6032     5.3171 C.2     
  42 C42            4.6294   -13.7838     6.6300 C.2     
  43 C43            3.6525   -13.0662     7.3490 C.2     
  44 C44            2.8448   -12.4691     6.4492 C.2     
  45 H45           -0.8875    -0.3767    -0.5057 H       
  46 H46            0.8922    -0.3525    -0.5218 H       
  47 H47            0.9118    -0.1491     1.9494 H       
  48 H48           -0.8680    -0.1733     1.9655 H       
  49 H49           -0.8467    -2.4242     0.9255 H       
  50 H50            0.9330    -2.4000     0.9094 H       
  51 H51            0.9526    -2.1967     3.3806 H       
  52 H52           -0.8271    -2.2209     3.3967 H       
  53 H53           -1.6281    -8.0470     2.8573 H       
  54 H54           -0.7854   -10.4546     3.7267 H       
  55 H55           -0.8003   -10.4446     1.9469 H       
  56 H56            3.1038   -12.6759     0.6525 H       
  57 H57            1.1583   -11.2415     4.9480 H       
  58 H58            4.1227   -13.4171     2.7667 H       
  59 H59            1.1180   -11.2222     0.6841 H       
  60 H60           -1.8369     5.4256     0.0495 H       
  61 H61           -1.0758     7.8550    -0.8345 H       
  62 H62           -1.0583     7.8451     0.9454 H       
  63 H63            0.8223     8.6939    -2.0909 H       
  64 H64            2.7672    10.2021    -2.1084 H       
  65 H65            3.7675    10.9485     0.0129 H       
  66 H66            0.8611     8.6757     2.1731 H       
  67 H67            4.5809    11.5551     1.7526 H       
  68 H68            5.0548    11.8908     4.3081 H       
  69 H69            3.2298    10.4602     5.6657 H       
  70 H70            1.6779     9.2881     3.9091 H       
  71 H71            4.9490   -14.0225     4.5007 H       
  72 H72            5.4311   -14.3710     7.0530 H       
  73 H73            3.5686   -13.0027     8.4239 H       
  74 H74            1.9947   -11.8436     6.6783 H       
@<TRIPOS>BOND
   1    1    2 1
   2    1   12 2
   3    1   19 1
   4    2    3 1
   5    2   45 1
   6    2   46 1
   7    3    4 1
   8    3   47 1
   9    3   48 1
  10    4    5 1
  11    4   49 1
  12    4   50 1
  13    5    6 1
  14    5   51 1
  15    5   52 1
  16    6    7 2
  17    6   10 1
  18    7    8 1
  19    8    9 2
  20    9   10 1
  21    9   11 1
  22   11   13 am
  23   11   53 1
  24   12   17 1
  25   13   14 2
  26   13   15 1
  27   15   16 1
  28   15   54 1
  29   15   55 1
  30   16   21 ar
  31   16   24 ar
  32   17   18 2
  33   18   19 1
  34   18   26 1
  35   20   24 ar
  36   20   23 ar
  37   20   56 1
  38   21   22 ar
  39   21   57 1
  40   22   23 ar
  41   22   25 1
  42   23   58 1
  43   24   59 1
  44   25   41 1
  45   25   44 1
  46   26   27 am
  47   26   60 1
  48   27   28 2
  49   27   29 1
  50   29   30 1
  51   29   61 1
  52   29   62 1
  53   30   31 ar
  54   30   35 ar
  55   31   32 ar
  56   31   63 1
  57   32   33 ar
  58   32   64 1
  59   33   34 ar
  60   33   65 1
  61   34   35 ar
  62   34   36 1
  63   35   66 1
  64   36   37 1
  65   36   40 1
  66   37   38 2
  67   37   67 1
  68   38   39 1
  69   38   68 1
  70   39   40 2
  71   39   69 1
  72   40   70 1
  73   41   42 2
  74   41   71 1
  75   42   43 1
  76   42   72 1
  77   43   44 2
  78   43   73 1
  79   44   74 1

#	End of record

