#	Name: ASD01890080
#	Creating user name:	WinNT
#	Creation time:	15. 06. 2019 19:50

#	Modifying user name:	WinNT
#	Modification time:	15. 06. 2019 19:50

#	Program:	/corina/corina34_cracker 3.40 0067  02.08.2006

@<TRIPOS>MOLECULE
ASD01890080
  28   29    0    0    0
SMALL
NO_CHARGES


@<TRIPOS>ATOM
   1 C1            -0.0178     1.4579     0.0101 C.2     
   2 C2             0.0021    -0.0041     0.0020 C.2     
   3 C3             1.1809    -0.6635    -0.0128 C.2     
   4 O4             1.0280     2.0808     0.0034 O.2     
   5 C5             1.2009    -2.1343    -0.0209 C.ar    
   6 C6             2.4197    -2.8210    -0.0362 C.ar    
   7 C7             2.4298    -4.1997    -0.0432 C.ar    
   8 C8             1.2384    -4.9043    -0.0351 C.ar    
   9 C9             0.0284    -4.2324    -0.0200 C.ar    
  10 C10            0.0012    -2.8540    -0.0074 C.ar    
  11 C11           -1.3086     2.1800     0.0201 C.ar    
  12 C12           -1.3310     3.5759     0.0278 C.ar    
  13 C13           -2.5392     4.2434     0.0372 C.ar    
  14 C14           -3.7270     3.5308     0.0395 C.ar    
  15 C15           -3.7107     2.1476     0.0319 C.ar    
  16 C16           -2.5097     1.4686     0.0162 C.ar    
  17 Cl17          -2.5701     5.9791     0.0468 Cl      
  18 H18           -0.9258    -0.5567     0.0079 H       
  19 H19            2.1088    -0.1108    -0.0187 H       
  20 H20            3.3501    -2.2726    -0.0429 H       
  21 H21            3.3699    -4.7313    -0.0554 H       
  22 H22            1.2531    -5.9842    -0.0411 H       
  23 H23           -0.8969    -4.7893    -0.0141 H       
  24 H24           -0.9437    -2.3311     0.0086 H       
  25 H25           -0.4052     4.1322     0.0268 H       
  26 H26           -4.6699     4.0574     0.0476 H       
  27 H27           -4.6403     1.5979     0.0341 H       
  28 H28           -2.4989     0.3887     0.0057 H       
@<TRIPOS>BOND
   1    1    2 1
   2    1    4 2
   3    1   11 1
   4    2    3 2
   5    2   18 1
   6    3    5 1
   7    3   19 1
   8    5    6 ar
   9    5   10 ar
  10    6    7 ar
  11    6   20 1
  12    7    8 ar
  13    7   21 1
  14    8    9 ar
  15    8   22 1
  16    9   10 ar
  17    9   23 1
  18   10   24 1
  19   11   12 ar
  20   11   16 ar
  21   12   13 ar
  22   12   25 1
  23   13   14 ar
  24   13   17 1
  25   14   15 ar
  26   14   26 1
  27   15   16 ar
  28   15   27 1
  29   16   28 1

#	End of record

