#	Name: ASD01150885
#	Creating user name:	WinNT
#	Creation time:	15. 06. 2019 19:05

#	Modifying user name:	WinNT
#	Modification time:	15. 06. 2019 19:05

#	Program:	/corina/corina34_cracker 3.40 0067  02.08.2006

@<TRIPOS>MOLECULE
ASD01150885
  59   62    0    0    0
SMALL
NO_CHARGES


@<TRIPOS>ATOM
   1 C1            -0.0181     1.4646    -0.0390 C.ar    
   2 C2             0.0044    -0.0087    -0.0358 C.2     
   3 N3            -1.1524    -0.7003    -0.0437 N.am    
   4 O4             1.0667    -0.6005    -0.0260 O.2     
   5 C5            -1.1311    -2.0901    -0.0406 C.2     
   6 N6            -0.0407    -2.8606    -0.0298 N.2     
   7 C7            -0.3865    -4.1317    -0.0297 C.2     
   8 N8            -1.7409    -4.2296    -0.0406 N.pl3   
   9 C9            -2.2408    -2.9261    -0.0422 C.2     
  10 C10           -3.5954    -2.5374    -0.0519 C.2     
  11 O11           -4.5671    -3.4753    -0.0608 O.3     
  12 O12           -3.8898    -1.3556    -0.0521 O.2     
  13 C13           -5.9181    -3.0098    -0.0703 C.3     
  14 C14           -6.8701    -4.2074    -0.0796 C.3     
  15 S15            0.7332    -5.4922    -0.0177 S.3     
  16 C16            2.3092    -4.6021    -0.0065 C.3     
  17 C17           -2.5269    -5.4659    -0.0442 C.3     
  18 C18           -2.8086    -5.8862     1.3754 C.ar    
  19 C19           -3.9480    -5.4367     2.0161 C.ar    
  20 C20           -4.2064    -5.8221     3.3182 C.ar    
  21 C21           -3.3256    -6.6575     3.9795 C.ar    
  22 C22           -2.1866    -7.1077     3.3385 C.ar    
  23 C23           -1.9304    -6.7257     2.0349 C.ar    
  24 C24            1.1808     2.1991    -0.0309 C.ar    
  25 N25            1.1540     3.5238    -0.0333 N.ar    
  26 C26            0.0198     4.1950    -0.0438 C.ar    
  27 C27           -1.2007     3.5419    -0.0522 C.ar    
  28 C28           -1.2337     2.1591    -0.0561 C.ar    
  29 S29            2.7266     1.3536    -0.0168 S.3     
  30 C30            3.8254     2.7223    -0.1711 C.ar    
  31 C31            4.2396     3.4139     0.9606 C.ar    
  32 C32            5.1012     4.4858     0.8360 C.ar    
  33 C33            5.5518     4.8712    -0.4134 C.ar    
  34 C34            5.1412     4.1854    -1.5421 C.ar    
  35 C35            4.2843     3.1090    -1.4243 C.ar    
  36 H36           -1.9997    -0.2282    -0.0514 H       
  37 H37           -6.1010    -2.4071     0.8193 H       
  38 H38           -6.0874    -2.4041    -0.9606 H       
  39 H39           -7.9006    -3.8524    -0.0868 H       
  40 H40           -6.6872    -4.8101    -0.9692 H       
  41 H41           -6.7008    -4.8131     0.8107 H       
  42 H42            3.1309    -5.3183     0.0017 H       
  43 H43            2.3802    -3.9778    -0.8972 H       
  44 H44            2.3655    -3.9743     0.8827 H       
  45 H45           -3.4684    -5.2964    -0.5666 H       
  46 H46           -1.9663    -6.2513    -0.5512 H       
  47 H47           -4.6362    -4.7841     1.4994 H       
  48 H48           -5.0963    -5.4704     3.8190 H       
  49 H49           -3.5271    -6.9580     4.9970 H       
  50 H50           -1.4983    -7.7600     3.8552 H       
  51 H51           -1.0406    -7.0775     1.5340 H       
  52 H52            0.0430     5.2748    -0.0454 H       
  53 H53           -2.1204     4.1080    -0.0604 H       
  54 H54           -2.1741     1.6281    -0.0627 H       
  55 H55            3.8878     3.1136     1.9365 H       
  56 H56            5.4232     5.0240     1.7152 H       
  57 H57            6.2256     5.7099    -0.5080 H       
  58 H58            5.4945     4.4895    -2.5163 H       
  59 H59            3.9643     2.5737    -2.3060 H       
@<TRIPOS>BOND
   1    1    2 1
   2    1   24 ar
   3    1   28 ar
   4    2    3 am
   5    2    4 2
   6    3    5 1
   7    3   36 1
   8    5    6 1
   9    5    9 2
  10    6    7 2
  11    7    8 1
  12    7   15 1
  13    8    9 1
  14    8   17 1
  15    9   10 1
  16   10   11 1
  17   10   12 2
  18   11   13 1
  19   13   14 1
  20   13   37 1
  21   13   38 1
  22   14   39 1
  23   14   40 1
  24   14   41 1
  25   15   16 1
  26   16   42 1
  27   16   43 1
  28   16   44 1
  29   17   18 1
  30   17   45 1
  31   17   46 1
  32   18   19 ar
  33   18   23 ar
  34   19   20 ar
  35   19   47 1
  36   20   21 ar
  37   20   48 1
  38   21   22 ar
  39   21   49 1
  40   22   23 ar
  41   22   50 1
  42   23   51 1
  43   24   25 ar
  44   24   29 1
  45   25   26 ar
  46   26   27 ar
  47   26   52 1
  48   27   28 ar
  49   27   53 1
  50   28   54 1
  51   29   30 1
  52   30   31 ar
  53   30   35 ar
  54   31   32 ar
  55   31   55 1
  56   32   33 ar
  57   32   56 1
  58   33   34 ar
  59   33   57 1
  60   34   35 ar
  61   34   58 1
  62   35   59 1

#	End of record

