#	Name: ASD00071104
#	Creating user name:	WinNT
#	Creation time:	15. 06. 2019 18:30

#	Modifying user name:	WinNT
#	Modification time:	15. 06. 2019 18:30

#	Program:	/corina/corina34_cracker 3.40 0067  02.08.2006

@<TRIPOS>MOLECULE
ASD00071104
  51   54    0    0    0
SMALL
NO_CHARGES


@<TRIPOS>ATOM
   1 N1             0.0071     1.3177    -0.0563 N.4     
   2 N2             1.0976    -0.7419    -0.1735 N.2     
   3 C3            -0.0133    -0.0801    -0.0462 C.2     
   4 N4            -1.2051    -0.7417     0.0983 N.pl3   
   5 C5            -1.3717    -2.0489    -0.5552 C.3     
   6 C6            -0.0821    -2.8175    -0.3895 C.ar    
   7 C7            -0.0799    -4.1955    -0.4139 C.ar    
   8 C8             1.1069    -4.8894    -0.2730 C.ar    
   9 C9             2.3062    -4.1977    -0.1069 C.ar    
  10 C10            2.3093    -2.8072    -0.0765 C.ar    
  11 C11            1.1099    -2.1109    -0.2139 C.ar    
  12 C12            4.7848    -4.2661     0.2045 C.ar    
  13 C13            3.5799    -4.9456     0.0380 C.ar    
  14 C14            3.5900    -6.3425     0.0101 C.ar    
  15 C15            4.8040    -6.9933     0.1500 C.ar    
  16 C16            5.9568    -6.2471     0.3113 C.ar    
  17 N17            5.9158    -4.9287     0.3340 N.ar    
  18 C18           -2.2918    -0.1583     0.8888 C.3     
  19 C19           -2.2508    -0.7165     2.2880 C.ar    
  20 C20           -1.4619    -0.1113     3.2541 C.ar    
  21 C21           -1.4259    -0.6273     4.5419 C.ar    
  22 C22           -2.1754    -1.7432     4.8615 C.ar    
  23 C23           -2.9624    -2.3482     3.9003 C.ar    
  24 C24           -3.0063    -1.8326     2.6126 C.ar    
  25 O25           -3.7849    -2.4247     1.6692 O.3     
  26 C26           -4.5364    -3.5707     2.0741 C.3     
  27 O27           -0.7242     0.9859     2.9402 O.3     
  28 C28            0.0653     1.5575     3.9852 C.3     
  29 H29            0.9432     1.6390    -0.2528 H       
  30 H30           -0.6217     1.6582    -0.7682 H       
  31 H31           -0.2854     1.6649     0.8448 H       
  32 H32           -2.1895    -2.5948    -0.0850 H       
  33 H33           -1.5831    -1.9072    -1.6151 H       
  34 H34           -1.0072    -4.7338    -0.5430 H       
  35 H35            1.1055    -5.9693    -0.2918 H       
  36 H36            3.2369    -2.2695     0.0529 H       
  37 H37            4.7921    -3.1863     0.2234 H       
  38 H38            2.6740    -6.9004    -0.1170 H       
  39 H39            4.8500    -8.0722     0.1336 H       
  40 H40            6.9056    -6.7514     0.4206 H       
  41 H41           -2.1732     0.9246     0.9260 H       
  42 H42           -3.2486    -0.4034     0.4277 H       
  43 H43           -0.8112    -0.1564     5.2947 H       
  44 H44           -2.1457    -2.1435     5.8641 H       
  45 H45           -3.5474    -3.2203     4.1526 H       
  46 H46           -3.8554    -4.3476     2.4215 H       
  47 H47           -5.2142    -3.2940     2.8817 H       
  48 H48           -5.1129    -3.9447     1.2280 H       
  49 H49           -0.5844     1.8659     4.8043 H       
  50 H50            0.7797     0.8179     4.3469 H       
  51 H51            0.6029     2.4247     3.6016 H       
@<TRIPOS>BOND
   1    1    3 1
   2    1   29 1
   3    1   30 1
   4    1   31 1
   5    2    3 2
   6    2   11 1
   7    3    4 1
   8    4    5 1
   9    4   18 1
  10    5    6 1
  11    5   32 1
  12    5   33 1
  13    6    7 ar
  14    6   11 ar
  15    7    8 ar
  16    7   34 1
  17    8    9 ar
  18    8   35 1
  19    9   10 ar
  20    9   13 1
  21   10   11 ar
  22   10   36 1
  23   12   13 ar
  24   12   17 ar
  25   12   37 1
  26   13   14 ar
  27   14   15 ar
  28   14   38 1
  29   15   16 ar
  30   15   39 1
  31   16   17 ar
  32   16   40 1
  33   18   19 1
  34   18   41 1
  35   18   42 1
  36   19   20 ar
  37   19   24 ar
  38   20   21 ar
  39   20   27 1
  40   21   22 ar
  41   21   43 1
  42   22   23 ar
  43   22   44 1
  44   23   24 ar
  45   23   45 1
  46   24   25 1
  47   25   26 1
  48   26   46 1
  49   26   47 1
  50   26   48 1
  51   27   28 1
  52   28   49 1
  53   28   50 1
  54   28   51 1

#	End of record

