#	Name: ASD03730210
#	Creating user name:	WinNT
#	Creation time:	15. 06. 2019 20:44

#	Modifying user name:	WinNT
#	Modification time:	15. 06. 2019 20:44

#	Program:	/corina/corina34_cracker 3.40 0067  02.08.2006

@<TRIPOS>MOLECULE
ASD03730210
  51   56    0    0    0
SMALL
NO_CHARGES


@<TRIPOS>ATOM
   1 C1            -0.6256    -0.0227     1.2510 C.2     
   2 C2             0.0725    -0.0227    -0.0845 C.3     
   3 O3            -0.0369    -0.3974     2.2431 O.2     
   4 N4            -1.9024     0.3988     1.3440 N.am    
   5 C5            -2.5886     0.2909     2.5600 C.ar    
   6 C6            -3.6590     1.1358     2.8338 C.ar    
   7 C7            -4.3337     1.0259     4.0357 C.ar    
   8 C8            -3.9447     0.0772     4.9639 C.ar    
   9 C9            -2.8811    -0.7636     4.6937 C.ar    
  10 C10           -2.2059    -0.6631     3.4923 C.ar    
  11 F11           -4.0384     2.0627     1.9271 F       
  12 O12            3.8734    -4.3065     0.2090 O.3     
  13 C13            4.5786    -3.4455     0.9854 C.ar    
  14 C14            4.0630    -2.1562     0.8818 C.ar    
  15 C15            2.9088    -2.2618    -0.0711 C.3     
  16 C16            2.8678    -3.7150    -0.4546 C.2     
  17 O17            7.3013    -2.6361     3.3897 O.3     
  18 C18            6.2447    -2.6259     2.5300 C.ar    
  19 C19            5.7149    -1.3479     2.4022 C.ar    
  20 C20            6.5469    -0.4310     3.2770 C.3     
  21 C21            7.8004    -1.2972     3.5456 C.3     
  22 C22            4.6288    -1.1166     1.5856 C.ar    
  23 C23            5.6713    -3.6708     1.8138 C.ar    
  24 N24            1.4792    -0.4047     0.0982 N.3     
  25 C25            1.5922    -1.8049     0.5695 C.3     
  26 C26            3.0675    -1.3627    -1.2666 C.ar    
  27 C27            3.8745    -1.4377    -2.3858 C.ar    
  28 C28            3.8103    -0.4530    -3.3575 C.ar    
  29 C29            2.9357     0.6073    -3.2067 C.ar    
  30 C30            2.1302     0.6895    -2.0904 C.ar    
  31 C31            2.1901    -0.2938    -1.1047 C.ar    
  32 F32            4.7286    -2.4741    -2.5323 F       
  33 O33            2.0864    -4.2442    -1.2091 O.2     
  34 H34           -0.4144    -0.7365    -0.7490 H       
  35 H35            0.0206     0.9744    -0.5216 H       
  36 H36           -2.3460     0.7769     0.5687 H       
  37 H37           -5.1648     1.6815     4.2499 H       
  38 H38           -4.4729    -0.0067     5.9022 H       
  39 H39           -2.5803    -1.5031     5.4210 H       
  40 H40           -1.3782    -1.3239     3.2807 H       
  41 H41            6.8113     0.4821     2.7437 H       
  42 H42            6.0260    -0.2007     4.2063 H       
  43 H43            8.1697    -1.1382     4.5587 H       
  44 H44            8.5790    -1.0875     2.8122 H       
  45 H45            4.2218    -0.1201     1.4976 H       
  46 H46            6.0788    -4.6670     1.9025 H       
  47 H47            0.7567    -2.4042     0.2078 H       
  48 H48            1.6563    -1.8437     1.6570 H       
  49 H49            4.4424    -0.5130    -4.2311 H       
  50 H50            2.8833     1.3738    -3.9657 H       
  51 H51            1.4497     1.5207    -1.9792 H       
@<TRIPOS>BOND
   1    1    2 1
   2    1    3 2
   3    1    4 am
   4    2   24 1
   5    2   34 1
   6    2   35 1
   7    4    5 1
   8    4   36 1
   9    5    6 ar
  10    5   10 ar
  11    6    7 ar
  12    6   11 1
  13    7    8 ar
  14    7   37 1
  15    8    9 ar
  16    8   38 1
  17    9   10 ar
  18    9   39 1
  19   10   40 1
  20   12   13 1
  21   12   16 1
  22   13   14 ar
  23   13   23 ar
  24   14   15 1
  25   14   22 ar
  26   15   16 1
  27   15   25 1
  28   15   26 1
  29   16   33 2
  30   17   18 1
  31   17   21 1
  32   18   19 ar
  33   18   23 ar
  34   19   20 1
  35   19   22 ar
  36   20   21 1
  37   20   41 1
  38   20   42 1
  39   21   43 1
  40   21   44 1
  41   22   45 1
  42   23   46 1
  43   24   25 1
  44   24   31 1
  45   25   47 1
  46   25   48 1
  47   26   27 ar
  48   26   31 ar
  49   27   28 ar
  50   27   32 1
  51   28   29 ar
  52   28   49 1
  53   29   30 ar
  54   29   50 1
  55   30   31 ar
  56   30   51 1

#	End of record

