#	Name: ASD05130020
#	Creating user name:	WinNT
#	Creation time:	15. 06. 2019 20:56

#	Modifying user name:	WinNT
#	Modification time:	15. 06. 2019 20:56

#	Program:	/corina/corina34_cracker 3.40 0067  02.08.2006

@<TRIPOS>MOLECULE
ASD05130020
  66   70    0    0    0
SMALL
NO_CHARGES


@<TRIPOS>ATOM
   1 N1             0.0773     1.2516    -0.0132 N.am    
   2 C2             0.2365     0.0731     0.6208 C.2     
   3 O3             1.3282    -0.2418     1.0538 O.2     
   4 N4            -0.8145    -0.7565     0.7750 N.am    
   5 C5            -0.6253    -2.0316     1.3197 C.ar    
   6 C6            -1.6692    -2.6694     1.9769 C.ar    
   7 C7            -1.4794    -3.9278     2.5134 C.ar    
   8 C8            -0.2512    -4.5525     2.3970 C.ar    
   9 C9             0.7903    -3.9201     1.7432 C.ar    
  10 C10            0.6050    -2.6642     1.1991 C.ar    
  11 C11            1.1483     2.1502    -0.1006 C.ar    
  12 C12            0.9038     3.5129    -0.2436 C.ar    
  13 C13            1.9595     4.4032    -0.3301 C.ar    
  14 C14            3.2605     3.9445    -0.2750 C.ar    
  15 C15            3.5141     2.5808    -0.1314 C.ar    
  16 C16            2.4511     1.6835    -0.0388 C.ar    
  17 C17            4.4071     4.9179    -0.3706 C.3     
  18 F18           -0.3673     3.9674    -0.2985 F       
  19 N19            6.7572     1.2120     1.2583 N.am    
  20 C20            5.4880     1.6615     1.2040 C.2     
  21 C21            4.9099     2.0872    -0.0726 C.2     
  22 C22            5.6670     2.0256    -1.2107 C.2     
  23 C23            6.9971     1.5499    -1.1278 C.ar    
  24 C24            7.8078     1.4704    -2.2671 C.ar    
  25 N25            9.0418     1.0260    -2.1728 N.ar    
  26 C26            9.5687     0.6392    -1.0157 C.ar    
  27 C27            8.8354     0.6856     0.1615 C.ar    
  28 C28            7.5250     1.1470     0.1184 C.ar    
  29 O29            4.8188     1.7136     2.2206 O.2     
  30 N30           10.8779     0.1793    -0.9841 N.pl3   
  31 C31           13.0224     0.4749    -2.0652 C.ar    
  32 C32           11.6596     0.2158    -2.1423 C.ar    
  33 C33           11.0840    -0.0074    -3.3908 C.ar    
  34 C34           11.9001     0.0388    -4.5093 C.ar    
  35 C35           13.2478     0.3026    -4.3515 C.ar    
  36 N36           13.7624     0.5101    -3.1550 N.ar    
  37 C37           14.1416     0.3543    -5.5638 C.3     
  38 C38            7.3260     0.7948     2.5423 C.3     
  39 C39            7.0574    -0.6958     2.7589 C.3     
  40 H40           -0.7777     1.4759    -0.4126 H       
  41 H41           -1.7019    -0.4698     0.5085 H       
  42 H42           -2.6285    -2.1817     2.0687 H       
  43 H43           -2.2908    -4.4243     3.0246 H       
  44 H44           -0.1050    -5.5363     2.8180 H       
  45 H45            1.7483    -4.4107     1.6539 H       
  46 H46            1.4175    -2.1727     0.6847 H       
  47 H47            1.7652     5.4597    -0.4413 H       
  48 H48            2.6429     0.6269     0.0762 H       
  49 H49            4.6779     5.2595     0.6284 H       
  50 H50            5.2638     4.4259    -0.8311 H       
  51 H51            4.1087     5.7722    -0.9783 H       
  52 H52            5.2548     2.3355    -2.1596 H       
  53 H53            7.4177     1.7750    -3.2270 H       
  54 H54            9.2753     0.3683     1.0954 H       
  55 H55           11.2503    -0.1675    -0.1583 H       
  56 H56           13.4790     0.6540    -1.1029 H       
  57 H57           10.0277    -0.2117    -3.4846 H       
  58 H58           11.4881    -0.1298    -5.4933 H       
  59 H59           14.1711     1.3731    -5.9502 H       
  60 H60           15.1483     0.0416    -5.2866 H       
  61 H61           13.7519    -0.3142    -6.3313 H       
  62 H62            8.4012     0.9735     2.5385 H       
  63 H63            6.8653     1.3677     3.3471 H       
  64 H64            5.9821    -0.8744     2.7626 H       
  65 H65            7.5181    -1.2686     1.9541 H       
  66 H66            7.4806    -1.0062     3.7142 H       
@<TRIPOS>BOND
   1    1    2 am
   2    1   11 1
   3    1   40 1
   4    2    3 2
   5    2    4 am
   6    4    5 1
   7    4   41 1
   8    5    6 ar
   9    5   10 ar
  10    6    7 ar
  11    6   42 1
  12    7    8 ar
  13    7   43 1
  14    8    9 ar
  15    8   44 1
  16    9   10 ar
  17    9   45 1
  18   10   46 1
  19   11   12 ar
  20   11   16 ar
  21   12   13 ar
  22   12   18 1
  23   13   14 ar
  24   13   47 1
  25   14   15 ar
  26   14   17 1
  27   15   16 ar
  28   15   21 1
  29   16   48 1
  30   17   49 1
  31   17   50 1
  32   17   51 1
  33   19   20 am
  34   19   28 1
  35   19   38 1
  36   20   21 1
  37   20   29 2
  38   21   22 2
  39   22   23 1
  40   22   52 1
  41   23   24 ar
  42   23   28 ar
  43   24   25 ar
  44   24   53 1
  45   25   26 ar
  46   26   27 ar
  47   26   30 1
  48   27   28 ar
  49   27   54 1
  50   30   32 1
  51   30   55 1
  52   31   32 ar
  53   31   36 ar
  54   31   56 1
  55   32   33 ar
  56   33   34 ar
  57   33   57 1
  58   34   35 ar
  59   34   58 1
  60   35   36 ar
  61   35   37 1
  62   37   59 1
  63   37   60 1
  64   37   61 1
  65   38   39 1
  66   38   62 1
  67   38   63 1
  68   39   64 1
  69   39   65 1
  70   39   66 1

#	End of record

