#	Name: ASD05130022
#	Creating user name:	WinNT
#	Creation time:	15. 06. 2019 20:56

#	Modifying user name:	WinNT
#	Modification time:	15. 06. 2019 20:56

#	Program:	/corina/corina34_cracker 3.40 0067  02.08.2006

@<TRIPOS>MOLECULE
ASD05130022
  73   77    0    0    0
SMALL
NO_CHARGES


@<TRIPOS>ATOM
   1 N1             1.4001     2.2213     0.8990 N.am    
   2 C2             2.8640     2.0966     0.9636 C.3     
   3 C3             2.6640     0.7839     1.7338 C.3     
   4 C4             1.3260     0.7549     0.9821 C.3     
   5 C5             0.5155     3.2342     0.8093 C.2     
   6 O6             0.9098     4.3833     0.7628 O.2     
   7 N7            -0.8062     2.9732     0.7712 N.am    
   8 N8            -5.3310     4.5730     0.5145 N.am    
   9 C9            -6.2010     5.6018     0.5339 C.2     
  10 C10           -5.7176     6.9739     0.7058 C.2     
  11 C11           -4.3766     7.2043     0.8470 C.2     
  12 C12           -3.4832     6.1067     0.8237 C.ar    
  13 C13           -2.1029     6.2959     0.9656 C.ar    
  14 N14           -1.2868     5.2649     0.9424 N.ar    
  15 C15           -1.7229     4.0200     0.7867 C.ar    
  16 C16           -3.0734     3.7430     0.6389 C.ar    
  17 C17           -3.9811     4.7965     0.6559 C.ar    
  18 O18           -7.3939     5.3901     0.4076 O.2     
  19 C19           -6.6748     8.1048     0.7261 C.ar    
  20 C20           -6.9931     8.7297     1.9318 C.ar    
  21 C21           -7.8852     9.7827     1.9495 C.ar    
  22 C22           -8.4662    10.2222     0.7726 C.ar    
  23 C23           -8.1537     9.6046    -0.4344 C.ar    
  24 C24           -7.2549     8.5503    -0.4603 C.ar    
  25 N25           -8.7438    10.0515    -1.6236 N.am    
  26 C26           -8.1166     9.8593    -2.8009 C.2     
  27 O27           -7.0743     9.2342    -2.8395 O.2     
  28 N28           -8.6445    10.3600    -3.9354 N.am    
  29 C29           -7.9334    10.2700    -5.1372 C.ar    
  30 C30           -8.6126    10.2604    -6.3485 C.ar    
  31 C31           -7.9079    10.1714    -7.5329 C.ar    
  32 C32           -6.5275    10.0917    -7.5136 C.ar    
  33 C33           -5.8483    10.1005    -6.3091 C.ar    
  34 C34           -6.5468    10.1956    -5.1214 C.ar    
  35 C35           -6.3630     8.2547     3.2158 C.3     
  36 F36           -9.3391    11.2531     0.7960 F       
  37 C37           -5.8274     3.2048     0.3475 C.3     
  38 C38           -5.8780     2.8589    -1.1420 C.3     
  39 N39            3.5936    -0.2870     1.3505 N.3     
  40 C40            4.9883     0.1566     1.4762 C.3     
  41 C41            3.3537    -1.5008     2.1424 C.3     
  42 H42            3.3316     1.9607    -0.0116 H       
  43 H43            3.3407     2.8784     1.5549 H       
  44 H44            2.5680     0.9087     2.8123 H       
  45 H45            0.4948     0.3959     1.5890 H       
  46 H46            1.3838     0.2617     0.0117 H       
  47 H47           -1.1185     2.0556     0.7329 H       
  48 H48           -4.0045     8.2102     0.9743 H       
  49 H49           -1.7070     7.2924     1.0944 H       
  50 H50           -3.4147     2.7261     0.5124 H       
  51 H51           -8.1309    10.2648     2.8842 H       
  52 H52           -7.0079     8.0722    -1.3967 H       
  53 H53           -9.6039    10.4994    -1.5997 H       
  54 H54           -9.5173    10.7828    -3.9188 H       
  55 H55           -9.6907    10.3222    -6.3642 H       
  56 H56           -8.4355    10.1635    -8.4753 H       
  57 H57           -5.9787    10.0222    -8.4412 H       
  58 H58           -4.7702    10.0375    -6.2973 H       
  59 H59           -6.0155    10.2076    -4.1813 H       
  60 H60           -5.4350     8.7996     3.3884 H       
  61 H61           -7.0484     8.4327     4.0444 H       
  62 H62           -6.1500     7.1882     3.1431 H       
  63 H63           -5.1601     2.5112     0.8591 H       
  64 H64           -6.8280     3.1269     0.7728 H       
  65 H65           -6.2473     1.8409    -1.2663 H       
  66 H66           -6.5453     3.5525    -1.6537 H       
  67 H67           -4.8774     2.9368    -1.5673 H       
  68 H68            5.1879     0.4393     2.5098 H       
  69 H69            5.6553    -0.6553     1.1863 H       
  70 H70            5.1567     1.0149     0.8257 H       
  71 H71            2.3655    -1.8973     1.9094 H       
  72 H72            4.1107    -2.2472     1.9016 H       
  73 H73            3.4071    -1.2585     3.2038 H       
@<TRIPOS>BOND
   1    1    2 1
   2    1    4 1
   3    1    5 am
   4    2    3 1
   5    2   42 1
   6    2   43 1
   7    3    4 1
   8    3   39 1
   9    3   44 1
  10    4   45 1
  11    4   46 1
  12    5    6 2
  13    5    7 am
  14    7   15 1
  15    7   47 1
  16    8    9 am
  17    8   17 1
  18    8   37 1
  19    9   10 1
  20    9   18 2
  21   10   11 2
  22   10   19 1
  23   11   12 1
  24   11   48 1
  25   12   13 ar
  26   12   17 ar
  27   13   14 ar
  28   13   49 1
  29   14   15 ar
  30   15   16 ar
  31   16   17 ar
  32   16   50 1
  33   19   20 ar
  34   19   24 ar
  35   20   21 ar
  36   20   35 1
  37   21   22 ar
  38   21   51 1
  39   22   23 ar
  40   22   36 1
  41   23   24 ar
  42   23   25 1
  43   24   52 1
  44   25   26 am
  45   25   53 1
  46   26   27 2
  47   26   28 am
  48   28   29 1
  49   28   54 1
  50   29   30 ar
  51   29   34 ar
  52   30   31 ar
  53   30   55 1
  54   31   32 ar
  55   31   56 1
  56   32   33 ar
  57   32   57 1
  58   33   34 ar
  59   33   58 1
  60   34   59 1
  61   35   60 1
  62   35   61 1
  63   35   62 1
  64   37   38 1
  65   37   63 1
  66   37   64 1
  67   38   65 1
  68   38   66 1
  69   38   67 1
  70   39   40 1
  71   39   41 1
  72   40   68 1
  73   40   69 1
  74   40   70 1
  75   41   71 1
  76   41   72 1
  77   41   73 1

#	End of record

