#	Name: ASD01881589
#	Creating user name:	WinNT
#	Creation time:	15. 06. 2019 19:43

#	Modifying user name:	WinNT
#	Modification time:	15. 06. 2019 19:43

#	Program:	/corina/corina34_cracker 3.40 0067  02.08.2006

@<TRIPOS>MOLECULE
ASD01881589
  27   27    0    0    0
SMALL
NO_CHARGES


@<TRIPOS>ATOM
   1 C1            -0.0187     1.5258     0.0104 C.3     
   2 C2             0.0021    -0.0041     0.0020 C.3     
   3 C3            -1.4333    -0.5336     0.0129 C.3     
   4 O4             0.6709    -0.4649    -1.1737 O.3     
   5 N5             1.3595     2.0342     0.0000 N.3     
   6 C6             1.3788     3.5031     0.0077 C.3     
   7 C7             2.8060     3.9868    -0.0033 C.ar    
   8 C8             3.4490     4.2150    -1.2056 C.ar    
   9 C9             4.7578     4.6591    -1.2162 C.ar    
  10 C10            5.4243     4.8752    -0.0236 C.ar    
  11 C11            4.7805     4.6467     1.1793 C.ar    
  12 C12            3.4700     4.2076     1.1889 C.ar    
  13 Br13           7.2152     5.4822    -0.0374 Br      
  14 H14           -0.5459     1.8868    -0.8726 H       
  15 H15           -0.5289     1.8773     0.9072 H       
  16 H16            0.5293    -0.3651     0.8851 H       
  17 H17           -1.4185    -1.6235     0.0069 H       
  18 H18           -1.9435    -0.1821     0.9097 H       
  19 H19           -1.9605    -0.1726    -0.8702 H       
  20 H20            0.7216    -1.4279    -1.2455 H       
  21 H21            1.8883     1.6616     0.7744 H       
  22 H22            0.8613     3.8779    -0.8754 H       
  23 H23            0.8783     3.8683     0.9045 H       
  24 H24            2.9286     4.0460    -2.1368 H       
  25 H25            5.2602     4.8370    -2.1556 H       
  26 H26            5.3006     4.8149     2.1107 H       
  27 H27            2.9659     4.0331     2.1280 H       
@<TRIPOS>BOND
   1    1    2 1
   2    1    5 1
   3    1   14 1
   4    1   15 1
   5    2    3 1
   6    2    4 1
   7    2   16 1
   8    3   17 1
   9    3   18 1
  10    3   19 1
  11    4   20 1
  12    5    6 1
  13    5   21 1
  14    6    7 1
  15    6   22 1
  16    6   23 1
  17    7    8 ar
  18    7   12 ar
  19    8    9 ar
  20    8   24 1
  21    9   10 ar
  22    9   25 1
  23   10   11 ar
  24   10   13 1
  25   11   12 ar
  26   11   26 1
  27   12   27 1

#	End of record

