#	Name: ASD01900651
#	Creating user name:	WinNT
#	Creation time:	15. 06. 2019 19:52

#	Modifying user name:	WinNT
#	Modification time:	15. 06. 2019 19:52

#	Program:	/corina/corina34_cracker 3.40 0067  02.08.2006

@<TRIPOS>MOLECULE
ASD01900651
  46   50    0    0    0
SMALL
NO_CHARGES


@<TRIPOS>ATOM
   1 C1            -0.0186     1.4182     0.1364 C.ar    
   2 C2            -0.0085     0.0183     0.1256 C.ar    
   3 C3             1.2005    -0.6776     0.0646 C.ar    
   4 C4             2.3945     0.0226     0.0145 C.ar    
   5 C5             2.3660     1.4260     0.0306 C.ar    
   6 O6             3.5723    -0.6342    -0.0565 O.3     
   7 C7             4.7414    -0.0181     0.1899 C.2     
   8 C8             4.8674     1.3292     0.2209 C.2     
   9 C9             3.6620     2.1483    -0.0104 C.2     
  10 C10            5.9386    -0.8461     0.4376 C.ar    
  11 N11            7.1077    -0.2482     0.6840 N.ar    
  12 C12            8.2096    -0.9181     0.9123 C.ar    
  13 C13            8.1982    -2.3240     0.9054 C.ar    
  14 C14            6.9751    -2.9984     0.6476 C.ar    
  15 C15            5.8247    -2.2274     0.4153 C.ar    
  16 C16            9.3587    -3.0751     1.1451 C.ar    
  17 C17            9.2946    -4.4359     1.1270 C.ar    
  18 C18            8.0941    -5.0969     0.8741 C.ar    
  19 C19            6.9469    -4.4014     0.6373 C.ar    
  20 C20            1.1580     2.1126     0.0894 C.ar    
  21 C21           -1.2442    -0.7034     0.1778 C.1     
  22 C22           -2.2573    -1.2952     0.2206 C.1     
  23 C23           -3.4930    -2.0169     0.2727 C.ar    
  24 C24           -3.4911    -3.4154     0.2623 C.ar    
  25 C25           -4.7069    -1.3274     0.3401 C.ar    
  26 C26           -5.8928    -2.0291     0.3900 C.ar    
  27 C27           -5.8840    -3.4132     0.3736 C.ar    
  28 C28           -4.6869    -4.1037     0.3128 C.ar    
  29 Cl29          -1.9896    -4.2833     0.1854 Cl      
  30 N30            3.7317     3.4378    -0.2384 N.2     
  31 O31            2.5669     4.1565    -0.6016 O.3     
  32 H32           -0.9575     1.9503     0.1775 H       
  33 H33            1.2046    -1.7576     0.0570 H       
  34 H34            5.8244     1.7924     0.4103 H       
  35 H35            9.1307    -0.3885     1.1062 H       
  36 H36            4.8743    -2.6999     0.2153 H       
  37 H37           10.2969    -2.5779     1.3424 H       
  38 H38           10.1892    -5.0120     1.3115 H       
  39 H39            8.0729    -6.1766     0.8659 H       
  40 H40            6.0229    -4.9258     0.4429 H       
  41 H41            1.1494     3.1926     0.0975 H       
  42 H42           -4.7159    -0.2475     0.3534 H       
  43 H43           -6.8313    -1.4973     0.4425 H       
  44 H44           -6.8163    -3.9568     0.4129 H       
  45 H45           -4.6879    -5.1836     0.2999 H       
  46 H46            2.7171     5.1003    -0.7490 H       
@<TRIPOS>BOND
   1    1    2 ar
   2    1   20 ar
   3    1   32 1
   4    2    3 ar
   5    2   21 1
   6    3    4 ar
   7    3   33 1
   8    4    5 ar
   9    4    6 1
  10    5   20 ar
  11    5    9 1
  12    6    7 1
  13    7    8 2
  14    7   10 1
  15    8    9 1
  16    8   34 1
  17    9   30 2
  18   10   11 ar
  19   10   15 ar
  20   11   12 ar
  21   12   13 ar
  22   12   35 1
  23   13   14 ar
  24   13   16 ar
  25   14   15 ar
  26   14   19 ar
  27   15   36 1
  28   16   17 ar
  29   16   37 1
  30   17   18 ar
  31   17   38 1
  32   18   19 ar
  33   18   39 1
  34   19   40 1
  35   20   41 1
  36   21   22 3
  37   22   23 1
  38   23   24 ar
  39   23   25 ar
  40   24   29 1
  41   24   28 ar
  42   25   26 ar
  43   25   42 1
  44   26   27 ar
  45   26   43 1
  46   27   28 ar
  47   27   44 1
  48   28   45 1
  49   30   31 1
  50   31   46 1

#	End of record

