#	Name: ASD00840640
#	Creating user name:	WinNT
#	Creation time:	15. 06. 2019 18:39

#	Modifying user name:	WinNT
#	Modification time:	15. 06. 2019 18:39

#	Program:	/corina/corina34_cracker 3.40 0067  02.08.2006

@<TRIPOS>MOLECULE
ASD00840640
  92   97    0    0    0
SMALL
NO_CHARGES


@<TRIPOS>ATOM
   1 N1             1.0488     1.4366    -0.7550 N.ar    
   2 C2             1.3091     0.1440    -0.8559 C.ar    
   3 C3             1.2274    -0.6834     0.2571 C.ar    
   4 C4             0.8691    -0.1374     1.4770 C.ar    
   5 C5             0.6038     1.2238     1.5409 C.ar    
   6 C6             0.7047     1.9861     0.3944 C.ar    
   7 C7             1.5246    -2.1560     0.1373 C.3     
   8 C8             1.2343    -2.8639     1.4436 C.2     
   9 C9             0.7105    -2.7751    -1.0006 C.3     
  10 C10           -0.7516    -2.4747    -0.7935 C.2     
  11 N11           -1.6720    -2.9997    -1.6264 N.am    
  12 O12           -1.1001    -1.7604     0.1226 O.2     
  13 C13           -3.0919    -2.6345    -1.5091 C.3     
  14 C14           -3.5993    -2.2035    -2.8893 C.3     
  15 N15           -3.3087    -3.2612    -3.8665 N.3     
  16 C16           -1.8618    -3.4703    -4.0109 C.3     
  17 C17           -1.2824    -3.9485    -2.6805 C.3     
  18 C18           -3.9297    -2.9641    -5.1642 C.3     
  19 C19           -3.5043    -4.0195    -6.1887 C.3     
  20 C20           -4.2020    -3.7398    -7.5217 C.3     
  21 N21           -5.6576    -3.7759    -7.3308 N.3     
  22 C22           -6.0951    -2.7397    -6.3867 C.3     
  23 C23           -5.4539    -2.9895    -5.0198 C.3     
  24 H24           -6.1402    -3.6887    -8.2126 H       
  25 O25            0.1590    -2.9367     1.9997 O.2     
  26 N26            2.3909    -3.3970     1.8710 N.am    
  27 C27            3.0034    -2.3822    -0.0811 C.ar    
  28 C28            3.4475    -3.1349     1.0034 C.ar    
  29 C29            3.8665    -1.9975    -1.0755 C.ar    
  30 C30            5.2156    -2.3632    -1.0063 C.ar    
  31 C31            5.6692    -3.1198     0.0809 C.ar    
  32 C32            4.7917    -3.5013     1.0732 C.ar    
  33 F33            6.9696    -3.4779     0.1571 F       
  34 C34            2.2498    -5.9574     2.8703 C.ar    
  35 C35            0.9975    -6.3575     2.4264 C.ar    
  36 C36            3.2691    -6.8826     2.9922 C.ar    
  37 C37            3.0443    -8.2077     2.6722 C.ar    
  38 C38            1.7934    -8.6129     2.2278 C.ar    
  39 C39            0.7693    -7.6869     2.1051 C.ar    
  40 O40            1.5728    -9.9165     1.9136 O.3     
  41 O41           -0.0045    -5.4473     2.3071 O.3     
  42 C42            2.6733   -10.8154     2.0644 C.3     
  43 C43           -1.2675    -5.9298     1.8443 C.3     
  44 C44           -2.2624    -4.7695     1.7751 C.3     
  45 C45            6.1246    -1.9671    -2.0394 C.1     
  46 N46            6.8458    -1.6529    -2.8589 N.1     
  47 O47            1.6590    -0.3792    -2.0578 O.3     
  48 C48            2.1527    -0.2295    -4.4188 C.3     
  49 C49            1.6167     0.4987    -3.1846 C.3     
  50 S50            2.5427    -4.2670     3.2719 S.o2    
  51 O51            3.9081    -4.1763     3.6546 O.2     
  52 O52            1.4711    -3.8630     4.1132 O.2     
  53 H53            0.7971    -0.7561     2.3593 H       
  54 H54            0.3212     1.6814     2.4775 H       
  55 H55            0.4997     3.0455     0.4388 H       
  56 H56            1.0368    -2.3541    -1.9516 H       
  57 H57            0.8618    -3.8545    -1.0101 H       
  58 H58           -3.6637    -3.4947    -1.1609 H       
  59 H59           -3.2009    -1.8096    -0.8050 H       
  60 H60           -4.6753    -2.0350    -2.8450 H       
  61 H61           -3.0987    -1.2831    -3.1898 H       
  62 H62           -1.6777    -4.2205    -4.7799 H       
  63 H63           -1.3854    -2.5323    -4.2957 H       
  64 H64           -0.1956    -3.9949    -2.7501 H       
  65 H65           -1.6793    -4.9352    -2.4418 H       
  66 H66           -3.6114    -1.9782    -5.5032 H       
  67 H67           -2.4240    -3.9772    -6.3275 H       
  68 H68           -3.7872    -5.0093    -5.8304 H       
  69 H69           -3.9078    -2.7556    -7.8862 H       
  70 H70           -3.9123    -4.4979    -8.2494 H       
  71 H71           -5.7920    -1.7602    -6.7565 H       
  72 H72           -7.1804    -2.7714    -6.2900 H       
  73 H73           -5.7675    -3.9631    -4.6432 H       
  74 H74           -5.7665    -2.2114    -4.3235 H       
  75 H75            3.5058    -1.4142    -1.9099 H       
  76 H76            5.1469    -4.0850     1.9095 H       
  77 H77            4.2431    -6.5693     3.3378 H       
  78 H78            3.8426    -8.9287     2.7676 H       
  79 H79           -0.2048    -8.0003     1.7598 H       
  80 H80            3.4948   -10.4948     1.4237 H       
  81 H81            3.0021   -10.8162     3.1037 H       
  82 H82            2.3626   -11.8210     1.7809 H       
  83 H83           -1.1485    -6.3661     0.8526 H       
  84 H84           -1.6410    -6.6882     2.5324 H       
  85 H85           -2.3814    -4.3333     2.7669 H       
  86 H86           -1.8889    -4.0112     1.0870 H       
  87 H87           -3.2258    -5.1375     1.4221 H       
  88 H88            3.1496    -0.6165    -4.2079 H       
  89 H89            1.4879    -1.0558    -4.6705 H       
  90 H90            2.2025     0.4651    -5.2574 H       
  91 H91            0.5876     0.8095    -3.3645 H       
  92 H92            2.2317     1.3762    -2.9848 H       
@<TRIPOS>BOND
   1    1    2 ar
   2    1    6 ar
   3    2    3 ar
   4    2   47 1
   5    3    4 ar
   6    3    7 1
   7    4    5 ar
   8    4   53 1
   9    5    6 ar
  10    5   54 1
  11    6   55 1
  12    7    8 1
  13    7    9 1
  14    7   27 1
  15    8   25 2
  16    8   26 am
  17    9   10 1
  18    9   56 1
  19    9   57 1
  20   10   11 am
  21   10   12 2
  22   11   13 1
  23   11   17 1
  24   13   14 1
  25   13   58 1
  26   13   59 1
  27   14   15 1
  28   14   60 1
  29   14   61 1
  30   15   16 1
  31   15   18 1
  32   16   17 1
  33   16   62 1
  34   16   63 1
  35   17   64 1
  36   17   65 1
  37   18   19 1
  38   18   23 1
  39   18   66 1
  40   19   20 1
  41   19   67 1
  42   19   68 1
  43   20   21 1
  44   20   69 1
  45   20   70 1
  46   21   22 1
  47   21   24 1
  48   22   23 1
  49   22   71 1
  50   22   72 1
  51   23   73 1
  52   23   74 1
  53   26   50 am
  54   26   28 1
  55   27   28 ar
  56   27   29 ar
  57   28   32 ar
  58   29   30 ar
  59   29   75 1
  60   30   31 ar
  61   30   45 1
  62   31   32 ar
  63   31   33 1
  64   32   76 1
  65   34   35 ar
  66   34   36 ar
  67   34   50 1
  68   35   41 1
  69   35   39 ar
  70   36   37 ar
  71   36   77 1
  72   37   38 ar
  73   37   78 1
  74   38   39 ar
  75   38   40 1
  76   39   79 1
  77   40   42 1
  78   41   43 1
  79   42   80 1
  80   42   81 1
  81   42   82 1
  82   43   44 1
  83   43   83 1
  84   43   84 1
  85   44   85 1
  86   44   86 1
  87   44   87 1
  88   45   46 3
  89   47   49 1
  90   48   49 1
  91   48   88 1
  92   48   89 1
  93   48   90 1
  94   49   91 1
  95   49   92 1
  96   50   51 2
  97   50   52 2

#	End of record

