#	Name: ASD03090387
#	Creating user name:	WinNT
#	Creation time:	15. 06. 2019 20:28

#	Modifying user name:	WinNT
#	Modification time:	15. 06. 2019 20:28

#	Program:	/corina/corina34_cracker 3.40 0067  02.08.2006

@<TRIPOS>MOLECULE
ASD03090387
  42   44    0    0    0
SMALL
NO_CHARGES


@<TRIPOS>ATOM
   1 C1            -0.0179     1.4719     0.0101 C.2     
   2 C2             0.0021    -0.0041     0.0020 C.ar    
   3 C3             1.2203    -0.6995    -0.0133 C.ar    
   4 C4             1.1875    -2.0786    -0.0205 C.ar    
   5 C5            -0.0424    -2.7299    -0.0123 C.ar    
   6 N6            -1.1755    -2.0450     0.0022 N.ar    
   7 C7            -1.1903    -0.7285     0.0153 C.ar    
   8 O8             1.0266     2.0941     0.0035 O.2     
   9 N9            -1.1942     2.1299     0.0193 N.am    
  10 O10           -0.0809    -4.0843    -0.0197 O.3     
  11 C11           -1.3719    -4.6967    -0.0107 C.3     
  12 C12           -1.2146    -6.2186    -0.0209 C.3     
  13 C13           -2.5970    -6.8743    -0.0113 C.3     
  14 C14           -1.2140     3.5947     0.0273 C.3     
  15 N15           -6.5411     5.3988     0.3357 N.pl3   
  16 C16           -6.6944     5.4453     1.6946 C.2     
  17 C17           -5.5590     5.0575     2.2967 C.2     
  18 C18           -4.6003     4.7363     1.2367 C.ar    
  19 C19           -3.2778     4.2884     1.2273 C.ar    
  20 C20           -2.6415     4.0777     0.0367 C.ar    
  21 C21           -3.2993     4.3054    -1.1644 C.ar    
  22 C22           -4.6038     4.7478    -1.1782 C.ar    
  23 C23           -5.2711     4.9690     0.0224 C.ar    
  24 H24            2.1607    -0.1683    -0.0198 H       
  25 H25            2.1060    -2.6466    -0.0327 H       
  26 H26           -2.1344    -0.2043     0.0317 H       
  27 H27           -2.0275     1.6335     0.0205 H       
  28 H28           -1.9117    -4.3933     0.8863 H       
  29 H29           -1.9290    -4.3831    -0.8935 H       
  30 H30           -0.6748    -6.5220    -0.9180 H       
  31 H31           -0.6575    -6.5322     0.8619 H       
  32 H32           -3.1540    -6.5606    -0.8941 H       
  33 H33           -2.4849    -7.9585    -0.0186 H       
  34 H34           -3.1368    -6.5709     0.8857 H       
  35 H35           -0.7010     3.9602     0.9169 H       
  36 H36           -0.7094     3.9698    -0.8630 H       
  37 H37           -7.2264     5.6301    -0.3107 H       
  38 H38           -7.5953     5.7493     2.2068 H       
  39 H39           -5.3854     4.9942     3.3608 H       
  40 H40           -2.7594     4.1100     2.1578 H       
  41 H41           -2.7830     4.1342    -2.0975 H       
  42 H42           -5.1068     4.9223    -2.1178 H       
@<TRIPOS>BOND
   1    1    2 1
   2    1    8 2
   3    1    9 am
   4    2    3 ar
   5    2    7 ar
   6    3    4 ar
   7    3   24 1
   8    4    5 ar
   9    4   25 1
  10    5    6 ar
  11    5   10 1
  12    6    7 ar
  13    7   26 1
  14    9   14 1
  15    9   27 1
  16   10   11 1
  17   11   12 1
  18   11   28 1
  19   11   29 1
  20   12   13 1
  21   12   30 1
  22   12   31 1
  23   13   32 1
  24   13   33 1
  25   13   34 1
  26   14   20 1
  27   14   35 1
  28   14   36 1
  29   15   16 1
  30   15   23 1
  31   15   37 1
  32   16   17 2
  33   16   38 1
  34   17   18 1
  35   17   39 1
  36   18   19 ar
  37   18   23 ar
  38   19   20 ar
  39   19   40 1
  40   20   21 ar
  41   21   22 ar
  42   21   41 1
  43   22   23 ar
  44   22   42 1

#	End of record

