#	Name: ASD01810200
#	Creating user name:	WinNT
#	Creation time:	15. 06. 2019 19:24

#	Modifying user name:	WinNT
#	Modification time:	15. 06. 2019 19:24

#	Program:	/corina/corina34_cracker 3.40 0067  02.08.2006

@<TRIPOS>MOLECULE
ASD01810200
  48   52    0    0    0
SMALL
NO_CHARGES


@<TRIPOS>ATOM
   1 C1             0.1039     1.4772     0.3908 C.ar    
   2 C2             0.0851     0.0900     0.3827 C.ar    
   3 C3             1.2535    -0.6295     0.2406 C.ar    
   4 C4             2.4698     0.0389     0.1032 C.ar    
   5 C5             2.4841     1.4436     0.1119 C.ar    
   6 C6             1.2943     2.1571     0.2565 C.ar    
   7 N7             3.6451    -0.6678    -0.0386 N.pl3   
   8 C8             4.8373    -0.0734    -0.1723 C.2     
   9 C9             4.9780     1.2999    -0.1781 C.2     
  10 C10            3.7770     2.1382    -0.0343 C.2     
  11 O11            3.8479     3.3547    -0.0335 O.2     
  12 C12            6.3049     1.9144    -0.3262 C.2     
  13 O13            6.4293     3.2567    -0.3304 O.3     
  14 O14            7.2901     1.2123    -0.4451 O.2     
  15 C15            3.5871    -2.1316    -0.0427 C.3     
  16 C16            3.4445    -2.6248    -1.4595 C.ar    
  17 C17            4.5668    -2.7659    -2.2561 C.ar    
  18 C18            4.4426    -3.2170    -3.5542 C.ar    
  19 C19            3.1827    -3.5313    -4.0626 C.ar    
  20 C20            2.0553    -3.3875    -3.2547 C.ar    
  21 C21            2.1926    -2.9400    -1.9566 C.ar    
  22 C22            3.0425    -4.0157    -5.4559 C.ar    
  23 C23            3.6405    -3.3246    -6.5015 C.ar    
  24 C24            3.5086    -3.7788    -7.8037 C.ar    
  25 C25            2.7855    -4.9184    -8.0843 C.ar    
  26 C26            2.1756    -5.6309    -7.0564 C.ar    
  27 C27            2.3074    -5.1830    -5.7308 C.ar    
  28 F28            1.2197    -1.9800     0.2350 F       
  29 N29            1.4088    -6.7747    -7.0239 N.pl3   
  30 C30            1.0514    -7.0579    -5.7344 C.2     
  31 C31            1.5639    -6.1336    -4.9048 C.2     
  32 H32           -0.8196     2.0266     0.4984 H       
  33 H33           -0.8543    -0.4322     0.4891 H       
  34 H34            1.3063     3.2370     0.2627 H       
  35 H35            5.7184    -0.6889    -0.2789 H       
  36 H36            7.3221     3.6145    -0.4305 H       
  37 H37            4.5030    -2.5328     0.3913 H       
  38 H38            2.7311    -2.4629     0.5452 H       
  39 H39            5.5420    -2.5221    -1.8612 H       
  40 H40            5.3193    -3.3261    -4.1754 H       
  41 H41            1.0770    -3.6294    -3.6430 H       
  42 H42            1.3202    -2.8282    -1.3300 H       
  43 H43            4.2102    -2.4297    -6.2988 H       
  44 H44            3.9777    -3.2330    -8.6089 H       
  45 H45            2.6919    -5.2591    -9.1049 H       
  46 H46            1.1593    -7.3007    -7.7998 H       
  47 H47            0.4495    -7.9008    -5.4283 H       
  48 H48            1.4483    -6.0989    -3.8315 H       
@<TRIPOS>BOND
   1    1    2 ar
   2    1    6 ar
   3    1   32 1
   4    2    3 ar
   5    2   33 1
   6    3    4 ar
   7    3   28 1
   8    4    5 ar
   9    4    7 1
  10    5    6 ar
  11    5   10 1
  12    6   34 1
  13    7    8 1
  14    7   15 1
  15    8    9 2
  16    8   35 1
  17    9   10 1
  18    9   12 1
  19   10   11 2
  20   12   13 1
  21   12   14 2
  22   13   36 1
  23   15   16 1
  24   15   37 1
  25   15   38 1
  26   16   17 ar
  27   16   21 ar
  28   17   18 ar
  29   17   39 1
  30   18   19 ar
  31   18   40 1
  32   19   20 ar
  33   19   22 1
  34   20   21 ar
  35   20   41 1
  36   21   42 1
  37   22   23 ar
  38   22   27 ar
  39   23   24 ar
  40   23   43 1
  41   24   25 ar
  42   24   44 1
  43   25   26 ar
  44   25   45 1
  45   26   27 ar
  46   26   29 1
  47   27   31 1
  48   29   30 1
  49   29   46 1
  50   30   31 2
  51   30   47 1
  52   31   48 1

#	End of record

