#	Name: ASD01814609
#	Creating user name:	WinNT
#	Creation time:	15. 06. 2019 19:32

#	Modifying user name:	WinNT
#	Modification time:	15. 06. 2019 19:32

#	Program:	/corina/corina34_cracker 3.40 0067  02.08.2006

@<TRIPOS>MOLECULE
ASD01814609
  48   51    0    0    0
SMALL
NO_CHARGES


@<TRIPOS>ATOM
   1 C1            -0.5795     1.2461    -0.6565 C.2     
   2 N2            -1.8963     1.4525    -0.9773 N.pl3   
   3 N3            -2.5215     0.2022    -1.0266 N.2     
   4 C4            -1.6326    -0.7304    -0.7495 C.2     
   5 C5            -0.4096    -0.1257    -0.5124 C.2     
   6 C6            -1.4717    -2.2231    -0.5983 C.3     
   7 N7            -0.0715    -2.4885    -0.2537 N.am    
   8 C8             0.6095    -1.1910    -0.1997 C.3     
   9 C9            -2.3542     2.7231    -1.1808 C.2     
  10 C10           -1.4912     3.7622    -1.0606 C.2     
  11 C11           -0.1505     3.5106    -0.7309 C.2     
  12 N12            0.2651     2.2799    -0.5449 N.2     
  13 C13            0.4847    -3.6960    -0.0323 C.2     
  14 C14           -0.3598    -4.9057    -0.0171 C.ar    
  15 O15            1.6826    -3.7884     0.1550 O.2     
  16 C16           -0.2116    -5.8561     1.0026 C.ar    
  17 C17           -1.0107    -6.9893     1.0069 C.ar    
  18 C18           -1.9478    -7.1794     0.0105 C.ar    
  19 C19           -2.0970    -6.2429    -0.9990 C.ar    
  20 C20           -1.3154    -5.1077    -1.0154 C.ar    
  21 O21            0.7097    -5.6683     1.9804 O.3     
  22 C22            0.7267    -6.6192     3.0470 C.3     
  23 Cl23          -2.0400     5.3897    -1.3132 Cl      
  24 C24            0.8170     4.6580    -0.5954 C.3     
  25 C25           -3.7987     2.9669    -1.5345 C.3     
  26 C26            1.6079    -7.8075     2.6568 C.3     
  27 C27            1.2882    -5.9604     4.3086 C.3     
  28 H28           -2.1229    -2.5861     0.1968 H       
  29 H29           -1.7215    -2.7185    -1.5365 H       
  30 H30            1.4115    -1.1631    -0.9373 H       
  31 H31            1.0181    -1.0300     0.7980 H       
  32 H32           -0.8998    -7.7245     1.7903 H       
  33 H33           -2.5678    -8.0637     0.0183 H       
  34 H34           -2.8321    -6.4006    -1.7743 H       
  35 H35           -1.4385    -4.3777    -1.8018 H       
  36 H36           -0.2881    -6.9672     3.2397 H       
  37 H37            0.8192     5.0116     0.4357 H       
  38 H38            1.8181     4.3231    -0.8667 H       
  39 H39            0.5135     5.4693    -1.2571 H       
  40 H40           -4.3785     3.1021    -0.6214 H       
  41 H41           -3.8758     3.8632    -2.1499 H       
  42 H42           -4.1866     2.1117    -2.0879 H       
  43 H43            2.6227    -7.4595     2.4641 H       
  44 H44            1.6209    -8.5328     3.4704 H       
  45 H45            1.2079    -8.2768     1.7580 H       
  46 H46            0.6604    -5.1138     4.5866 H       
  47 H47            1.3012    -6.6857     5.1222 H       
  48 H48            2.3030    -5.6124     4.1159 H       
@<TRIPOS>BOND
   1    1    5 2
   2    1   12 1
   3    1    2 1
   4    2    3 1
   5    2    9 1
   6    3    4 2
   7    4    6 1
   8    4    5 1
   9    5    8 1
  10    6    7 1
  11    6   28 1
  12    6   29 1
  13    7    8 1
  14    7   13 am
  15    8   30 1
  16    8   31 1
  17    9   10 2
  18    9   25 1
  19   10   11 1
  20   10   23 1
  21   11   12 2
  22   11   24 1
  23   13   14 1
  24   13   15 2
  25   14   16 ar
  26   14   20 ar
  27   16   17 ar
  28   16   21 1
  29   17   18 ar
  30   17   32 1
  31   18   19 ar
  32   18   33 1
  33   19   20 ar
  34   19   34 1
  35   20   35 1
  36   21   22 1
  37   22   26 1
  38   22   27 1
  39   22   36 1
  40   24   37 1
  41   24   38 1
  42   24   39 1
  43   25   40 1
  44   25   41 1
  45   25   42 1
  46   26   43 1
  47   26   44 1
  48   26   45 1
  49   27   46 1
  50   27   47 1
  51   27   48 1

#	End of record

