#	Name: ASD02038787
#	Creating user name:	WinNT
#	Creation time:	15. 06. 2019 20:17

#	Modifying user name:	WinNT
#	Modification time:	15. 06. 2019 20:17

#	Program:	/corina/corina34_cracker 3.40 0067  02.08.2006

@<TRIPOS>MOLECULE
ASD02038787
  45   47    0    0    0
SMALL
NO_CHARGES


@<TRIPOS>ATOM
   1 C1            -0.3492    -0.3322     0.7969 C.2     
   2 C2             0.9513     0.1598     0.2935 C.2     
   3 N3             1.8956    -0.7164    -0.1028 N.am    
   4 C4             1.6844    -2.1543     0.0819 C.3     
   5 C5             1.1060    -2.7538    -1.2014 C.3     
   6 C6             3.1332    -0.2310    -0.7182 C.3     
   7 O7             1.1687     1.3544     0.2372 O.2     
   8 N8            -0.7619    -1.6128     0.8050 N.2     
   9 C9            -1.9612    -1.6311     1.3284 C.2     
  10 N10           -2.2881    -0.3640     1.6427 N.pl3   
  11 N11           -1.3046     0.4039     1.3209 N.2     
  12 C12            1.0384    -4.2535    -1.0693 C.ar    
  13 C13            2.7966     0.5947    -1.9637 C.3     
  14 C14            4.0895     1.1628    -2.5547 C.3     
  15 O15            4.7578     1.9498    -1.5667 O.3     
  16 C16            5.1392     1.2195    -0.3991 C.3     
  17 C17            3.8884     0.6537     0.2785 C.3     
  18 C18           -3.5475     0.0688     2.2533 C.3     
  19 C19           -0.1559    -4.8651    -0.7331 C.ar    
  20 C20           -0.2174    -6.2422    -0.6124 C.ar    
  21 C21            0.9142    -7.0056    -0.8278 C.ar    
  22 C22            2.1077    -6.3937    -1.1638 C.ar    
  23 C23            2.1684    -5.0185    -1.2896 C.ar    
  24 Cl24          -1.5770    -3.9055    -0.4622 Cl      
  25 H25            2.6356    -2.6348     0.3108 H       
  26 H26            0.9881    -2.3165     0.9047 H       
  27 H27            0.1041    -2.3582    -1.3679 H       
  28 H28            1.7448    -2.4918    -2.0449 H       
  29 H29            3.7571    -1.0790    -1.0006 H       
  30 H30           -2.5774    -2.5050     1.4802 H       
  31 H31            2.3077    -0.0417    -2.7014 H       
  32 H32            2.1311     1.4132    -1.6893 H       
  33 H33            4.7375     0.3435    -2.8661 H       
  34 H34            3.8520     1.7864    -3.4165 H       
  35 H35            5.8010     0.4010    -0.6823 H       
  36 H36            5.6579     1.8840     0.2920 H       
  37 H37            3.2450     1.4734     0.5983 H       
  38 H38            4.1805     0.0595     1.1444 H       
  39 H39           -3.4503     0.0500     3.3388 H       
  40 H40           -3.7802     1.0823     1.9268 H       
  41 H41           -4.3491    -0.6041     1.9486 H       
  42 H42           -1.1495    -6.7203    -0.3496 H       
  43 H43            0.8665    -8.0804    -0.7333 H       
  44 H44            2.9919    -6.9907    -1.3316 H       
  45 H45            3.1008    -4.5411    -1.5524 H       
@<TRIPOS>BOND
   1    1    2 1
   2    1    8 1
   3    1   11 2
   4    2    3 am
   5    2    7 2
   6    3    4 1
   7    3    6 1
   8    4    5 1
   9    4   25 1
  10    4   26 1
  11    5   12 1
  12    5   27 1
  13    5   28 1
  14    6   13 1
  15    6   17 1
  16    6   29 1
  17    8    9 2
  18    9   10 1
  19    9   30 1
  20   10   11 1
  21   10   18 1
  22   12   19 ar
  23   12   23 ar
  24   13   14 1
  25   13   31 1
  26   13   32 1
  27   14   15 1
  28   14   33 1
  29   14   34 1
  30   15   16 1
  31   16   17 1
  32   16   35 1
  33   16   36 1
  34   17   37 1
  35   17   38 1
  36   18   39 1
  37   18   40 1
  38   18   41 1
  39   19   20 ar
  40   19   24 1
  41   20   21 ar
  42   20   42 1
  43   21   22 ar
  44   21   43 1
  45   22   23 ar
  46   22   44 1
  47   23   45 1

#	End of record

