#	Name: ASD03930105
#	Creating user name:	WinNT
#	Creation time:	15. 06. 2019 20:47

#	Modifying user name:	WinNT
#	Modification time:	15. 06. 2019 20:47

#	Program:	/corina/corina34_cracker 3.40 0067  02.08.2006

@<TRIPOS>MOLECULE
ASD03930105
  49   51    0    0    0
SMALL
NO_CHARGES


@<TRIPOS>ATOM
   1 C1            -0.0154     1.0082    -0.1362 C.ar    
   2 C2             0.0680    -0.3530     0.0904 C.ar    
   3 C3             1.3041    -0.9582     0.2045 C.ar    
   4 C4             2.4615    -0.2059     0.0925 C.ar    
   5 C5             2.3782     1.1550    -0.1341 C.ar    
   6 C6             1.1376     1.7601    -0.2482 C.ar    
   7 C7             3.9143    -0.6224     0.1777 C.3     
   8 C8             4.7062     0.5428    -0.4529 C.3     
   9 C9             3.7691     1.7463    -0.2167 C.3     
  10 N10            5.9852     0.7357     0.2350 N.am    
  11 C11           -1.1887    -1.1755     0.2135 C.3     
  12 N12           -1.5814    -1.6681    -1.1092 N.pl3   
  13 N13           -1.1777    -2.8763    -1.6919 N.2     
  14 C14           -1.7325    -2.9657    -2.8735 C.2     
  15 C15           -2.5062    -1.8191    -3.0808 C.2     
  16 C16           -2.4006    -1.0408    -1.9789 C.2     
  17 C17           -1.5662    -4.1068    -3.8437 C.3     
  18 C18           -3.0696     0.2926    -1.7655 C.3     
  19 F19           -0.8133    -5.1224    -3.2446 F       
  20 F20           -2.8246    -4.6057    -4.1969 F       
  21 F21           -3.9199     0.5654    -2.8425 F       
  22 F22           -3.8137     0.2569    -0.5814 F       
  23 F23           -0.9064    -3.6516    -4.9903 F       
  24 F24           -2.0963     1.2935    -1.6747 F       
  25 S25            7.3253     1.1954    -0.6224 S.o2    
  26 O26            6.9075     2.3539    -1.3312 O.2     
  27 O27            8.3576     1.2651     0.3517 O.2     
  28 C28            7.6231    -0.1790    -1.7682 C.3     
  29 C29            8.8795     0.1077    -2.5930 C.3     
  30 C30            7.8185    -1.4720    -0.9739 C.3     
  31 H31           -0.9812     1.4824    -0.2301 H       
  32 H32            1.3685    -2.0216     0.3819 H       
  33 H33            1.0717     2.8234    -0.4257 H       
  34 H34            4.2080    -0.7597     1.2184 H       
  35 H35            4.0783    -1.5403    -0.3866 H       
  36 H36            4.8598     0.3747    -1.5189 H       
  37 H37            3.8340     2.4455    -1.0503 H       
  38 H38            4.0238     2.2461     0.7179 H       
  39 H39            6.0470     0.5942     1.1926 H       
  40 H40           -1.0060    -2.0211     0.8766 H       
  41 H41           -1.9882    -0.5584     0.6235 H       
  42 H42           -3.0886    -1.5964    -3.9626 H       
  43 H43            6.7678    -0.2880    -2.4350 H       
  44 H44            9.7348     0.2166    -1.9262 H       
  45 H45            9.0584    -0.7182    -3.2815 H       
  46 H46            8.7402     1.0288    -3.1589 H       
  47 H47            6.8950    -1.7203    -0.4509 H       
  48 H48            8.0789    -2.2815    -1.6558 H       
  49 H49            8.6210    -1.3353    -0.2490 H       
@<TRIPOS>BOND
   1    1    2 ar
   2    1    6 ar
   3    1   31 1
   4    2    3 ar
   5    2   11 1
   6    3    4 ar
   7    3   32 1
   8    4    5 ar
   9    4    7 1
  10    5    6 ar
  11    5    9 1
  12    6   33 1
  13    7    8 1
  14    7   34 1
  15    7   35 1
  16    8    9 1
  17    8   10 1
  18    8   36 1
  19    9   37 1
  20    9   38 1
  21   10   25 am
  22   10   39 1
  23   11   12 1
  24   11   40 1
  25   11   41 1
  26   12   13 1
  27   12   16 1
  28   13   14 2
  29   14   15 1
  30   14   17 1
  31   15   16 2
  32   15   42 1
  33   16   18 1
  34   17   19 1
  35   17   20 1
  36   17   23 1
  37   18   21 1
  38   18   22 1
  39   18   24 1
  40   25   26 2
  41   25   27 2
  42   25   28 1
  43   28   29 1
  44   28   30 1
  45   28   43 1
  46   29   44 1
  47   29   45 1
  48   29   46 1
  49   30   47 1
  50   30   48 1
  51   30   49 1

#	End of record

