#	Name: ASD01912277
#	Creating user name:	WinNT
#	Creation time:	15. 06. 2019 19:59

#	Modifying user name:	WinNT
#	Modification time:	15. 06. 2019 19:59

#	Program:	/corina/corina34_cracker 3.40 0067  02.08.2006

@<TRIPOS>MOLECULE
ASD01912277
  51   53    0    0    0
SMALL
NO_CHARGES


@<TRIPOS>ATOM
   1 N1             0.0642     1.5233    -0.0880 N.am    
   2 C2             0.2456     0.1117     0.2742 C.3     
   3 C3             0.6908    -0.6644    -0.9718 C.3     
   4 C4             1.8426     0.0789    -1.6119 C.2     
   5 C5             1.6618     1.5461    -1.9338 C.3     
   6 C6             1.1922     2.2668    -0.6637 C.3     
   7 C7            -1.1254     2.1280     0.1007 C.2     
   8 O8            -2.1308     1.4598     0.2460 O.2     
   9 N9            -1.2007     3.4734     0.1284 N.am    
  10 C10           -2.4419     4.1076     0.0026 C.ar    
  11 C11           -2.5433     5.4807     0.1845 C.ar    
  12 C12           -3.7694     6.1036     0.0593 C.ar    
  13 C13           -4.8956     5.3615    -0.2469 C.ar    
  14 C14           -4.7979     3.9944    -0.4285 C.ar    
  15 C15           -3.5734     3.3661    -0.3098 C.ar    
  16 N16           -3.8786     7.5669     0.2534 N.pl3   
  17 O17           -2.8872     8.2210     0.5234 O.2     
  18 O18           -4.9597     8.1169     0.1431 O.2     
  19 C19            2.9886    -0.5433    -1.8851 C.2     
  20 C20            4.0677     0.1770    -2.4912 C.1     
  21 C21            4.9524     0.7675    -2.9880 C.1     
  22 C22            6.0315     1.4878    -3.5941 C.ar    
  23 C23            7.2318     0.8301    -3.8787 C.ar    
  24 C24            8.2637     1.5403    -4.4639 C.ar    
  25 C25            8.0665     2.8854    -4.7475 C.ar    
  26 C26            6.8537     3.4744    -4.4398 C.ar    
  27 N27            5.8829     2.7765    -3.8873 N.ar    
  28 C28            6.6376     4.9339    -4.7467 C.3     
  29 C29            0.0169     4.2720     0.2901 C.3     
  30 H30            1.0081     0.0282     1.0485 H       
  31 H31           -0.6967    -0.2954     0.6409 H       
  32 H32            1.0139    -1.6650    -0.6849 H       
  33 H33           -0.1380    -0.7338    -1.6765 H       
  34 H34            2.6100     1.9685    -2.2661 H       
  35 H35            0.9137     1.6602    -2.7183 H       
  36 H36            0.8732     3.2785    -0.9144 H       
  37 H37            2.0092     2.3070     0.0568 H       
  38 H38           -1.6643     6.0607     0.4239 H       
  39 H39           -5.8535     5.8509    -0.3439 H       
  40 H40           -5.6793     3.4176    -0.6671 H       
  41 H41           -3.4970     2.2988    -0.4562 H       
  42 H42            3.1037    -1.5910    -1.6495 H       
  43 H43            7.3514    -0.2173    -3.6444 H       
  44 H44            9.2028     1.0595    -4.6952 H       
  45 H45            8.8538     3.4668    -5.2042 H       
  46 H46            6.2286     5.0372    -5.7517 H       
  47 H47            5.9393     5.3574    -4.0249 H       
  48 H48            7.5888     5.4627    -4.6854 H       
  49 H49            0.3773     4.5873    -0.6891 H       
  50 H50           -0.2028     5.1506     0.8966 H       
  51 H51            0.7820     3.6722     0.7830 H       
@<TRIPOS>BOND
   1    1    2 1
   2    1    6 1
   3    1    7 am
   4    2    3 1
   5    2   30 1
   6    2   31 1
   7    3    4 1
   8    3   32 1
   9    3   33 1
  10    4    5 1
  11    4   19 2
  12    5    6 1
  13    5   34 1
  14    5   35 1
  15    6   36 1
  16    6   37 1
  17    7    8 2
  18    7    9 am
  19    9   10 1
  20    9   29 1
  21   10   11 ar
  22   10   15 ar
  23   11   12 ar
  24   11   38 1
  25   12   13 ar
  26   12   16 1
  27   13   14 ar
  28   13   39 1
  29   14   15 ar
  30   14   40 1
  31   15   41 1
  32   16   17 2
  33   16   18 2
  34   19   20 1
  35   19   42 1
  36   20   21 3
  37   21   22 1
  38   22   23 ar
  39   22   27 ar
  40   23   24 ar
  41   23   43 1
  42   24   25 ar
  43   24   44 1
  44   25   26 ar
  45   25   45 1
  46   26   27 ar
  47   26   28 1
  48   28   46 1
  49   28   47 1
  50   28   48 1
  51   29   49 1
  52   29   50 1
  53   29   51 1

#	End of record

