#	Name: ASD01813635
#	Creating user name:	WinNT
#	Creation time:	15. 06. 2019 19:30

#	Modifying user name:	WinNT
#	Modification time:	15. 06. 2019 19:30

#	Program:	/corina/corina34_cracker 3.40 0067  02.08.2006

@<TRIPOS>MOLECULE
ASD01813635
  40   43    0    0    0
SMALL
NO_CHARGES


@<TRIPOS>ATOM
   1 C1             0.0981     1.4755     0.3561 C.ar    
   2 C2             0.0800     0.0883     0.3483 C.ar    
   3 C3             1.2501    -0.6306     0.2176 C.ar    
   4 C4             2.4673     0.0383     0.0917 C.ar    
   5 C5             2.4808     1.4430     0.1001 C.ar    
   6 C6             1.2893     2.1560     0.2330 C.ar    
   7 N7             3.6443    -0.6677    -0.0386 N.pl3   
   8 C8             4.8374    -0.0728    -0.1610 C.2     
   9 C9             4.9775     1.3006    -0.1659 C.2     
  10 C10            3.7747     2.1383    -0.0339 C.2     
  11 O11            3.8450     3.3548    -0.0329 O.2     
  12 C12            6.3054     1.9157    -0.3015 C.2     
  13 O13            6.4291     3.2581    -0.3048 O.3     
  14 O14            7.2920     1.2141    -0.4106 O.2     
  15 C15            3.5871    -2.1316    -0.0427 C.3     
  16 C16            3.4445    -2.6248    -1.4595 C.ar    
  17 C17            4.5593    -2.7691    -2.2630 C.ar    
  18 N18            4.4480    -3.1990    -3.5042 N.ar    
  19 C19            3.2696    -3.5093    -4.0296 C.ar    
  20 C20            2.1034    -3.3877    -3.2748 C.ar    
  21 C21            2.1923    -2.9438    -1.9678 C.ar    
  22 F22            1.2170    -1.9812     0.2122 F       
  23 C23            3.1922    -3.9884    -5.4299 C.2     
  24 C24            2.0236    -4.2261    -6.0560 C.2     
  25 S25            2.3370    -4.7777    -7.6961 S.3     
  26 C26            4.0726    -4.6553    -7.4439 C.2     
  27 C27            4.3230    -4.2249    -6.2107 C.2     
  28 H28           -0.8268     2.0245     0.4546 H       
  29 H29           -0.8601    -0.4343     0.4459 H       
  30 H30            1.3007     3.2359     0.2391 H       
  31 H31            5.7198    -0.6879    -0.2589 H       
  32 H32            7.3227     3.6164    -0.3965 H       
  33 H33            4.5033    -2.5323     0.3911 H       
  34 H34            2.7314    -2.4634     0.5453 H       
  35 H35            5.5350    -2.5260    -1.8689 H       
  36 H36            1.1448    -3.6400    -3.7034 H       
  37 H37            1.3065    -2.8399    -1.3587 H       
  38 H38            1.0448    -4.0980    -5.6180 H       
  39 H39            4.8243    -4.8910    -8.1827 H       
  40 H40            5.3264    -4.0761    -5.8399 H       
@<TRIPOS>BOND
   1    1    2 ar
   2    1    6 ar
   3    1   28 1
   4    2    3 ar
   5    2   29 1
   6    3    4 ar
   7    3   22 1
   8    4    5 ar
   9    4    7 1
  10    5    6 ar
  11    5   10 1
  12    6   30 1
  13    7    8 1
  14    7   15 1
  15    8    9 2
  16    8   31 1
  17    9   10 1
  18    9   12 1
  19   10   11 2
  20   12   13 1
  21   12   14 2
  22   13   32 1
  23   15   16 1
  24   15   33 1
  25   15   34 1
  26   16   17 ar
  27   16   21 ar
  28   17   18 ar
  29   17   35 1
  30   18   19 ar
  31   19   20 ar
  32   19   23 1
  33   20   21 ar
  34   20   36 1
  35   21   37 1
  36   23   24 2
  37   23   27 1
  38   24   25 1
  39   24   38 1
  40   25   26 1
  41   26   27 2
  42   26   39 1
  43   27   40 1

#	End of record

