#	Name: ASD01881173
#	Creating user name:	WinNT
#	Creation time:	15. 06. 2019 19:42

#	Modifying user name:	WinNT
#	Modification time:	15. 06. 2019 19:42

#	Program:	/corina/corina34_cracker 3.40 0067  02.08.2006

@<TRIPOS>MOLECULE
ASD01881173
  47   49    0    0    0
SMALL
NO_CHARGES


@<TRIPOS>ATOM
   1 Cl1            8.0480     4.6057     0.7366 Cl      
   2 N2            -0.0158     1.3136     0.0093 N.ar    
   3 C3             0.0021    -0.0041     0.0020 C.ar    
   4 N4             1.1319    -0.6827    -0.0124 N.ar    
   5 C5             2.2989    -0.0581    -0.0202 C.ar    
   6 C6             2.3222     1.3269    -0.0130 C.ar    
   7 C7             1.1127     2.0071     0.0022 C.ar    
   8 C8             3.6294     2.0768    -0.0210 C.3     
   9 O9             4.0302     2.3210    -1.3707 O.3     
  10 C10            5.1956     2.9915    -1.5556 C.ar    
  11 C11            5.6444     3.2626    -2.8449 C.ar    
  12 C12            6.8227     3.9410    -3.0317 C.ar    
  13 C13            7.5785     4.3634    -1.9327 C.ar    
  14 C14            7.1231     4.0892    -0.6387 C.ar    
  15 C15            5.9360     3.4112    -0.4578 C.ar    
  16 C16            7.5748     4.3856    -4.2614 C.3     
  17 N17            8.7789     5.0718    -3.7791 N.am    
  18 C18            8.7765     5.0564    -2.4351 C.2     
  19 O19            9.6413     5.5450    -1.7338 O.2     
  20 Cl20           1.0791     3.7428     0.0113 Cl      
  21 C21           -1.7608    -1.0016    -1.4284 C.3     
  22 C22           -1.3044    -0.7552     0.0110 C.3     
  23 C23            9.4548     7.1356    -4.9038 C.3     
  24 C24            9.8130     5.6748    -4.6235 C.3     
  25 C25            4.0068    -1.1018    -1.4840 C.3     
  26 C26            3.5850    -0.8433    -0.0362 C.3     
  27 H27            3.5065     3.0268     0.4991 H       
  28 H28            4.3921     1.4829     0.4827 H       
  29 H29            5.0660     2.9391    -3.6977 H       
  30 H30            5.5843     3.1994     0.5411 H       
  31 H31            7.8524     3.5208    -4.8640 H       
  32 H32            6.9626     5.0707    -4.8478 H       
  33 H33           -2.7058    -1.5449    -1.4219 H       
  34 H34           -1.8945    -0.0462    -1.9358 H       
  35 H35           -1.0074    -1.5893    -1.9529 H       
  36 H36           -1.1707    -1.7106     0.5184 H       
  37 H37           -2.0578    -0.1675     0.5355 H       
  38 H38           10.2242     7.5843    -5.5321 H       
  39 H39            8.4942     7.1821    -5.4168 H       
  40 H40            9.3907     7.6811    -3.9624 H       
  41 H41           10.7737     5.6283    -4.1105 H       
  42 H42            9.8771     5.1293    -5.5650 H       
  43 H43            4.9370    -1.6697    -1.4956 H       
  44 H44            3.2281    -1.6695    -1.9935 H       
  45 H45            4.1556    -0.1503    -1.9945 H       
  46 H46            4.3637    -0.2756     0.4732 H       
  47 H47            3.4362    -1.7948     0.4743 H       
@<TRIPOS>BOND
   1    1   14 1
   2    2    3 ar
   3    2    7 ar
   4    3    4 ar
   5    3   22 1
   6    4    5 ar
   7    5    6 ar
   8    5   26 1
   9    6    7 ar
  10    6    8 1
  11    7   20 1
  12    8    9 1
  13    8   27 1
  14    8   28 1
  15    9   10 1
  16   10   11 ar
  17   10   15 ar
  18   11   12 ar
  19   11   29 1
  20   12   13 ar
  21   12   16 1
  22   13   14 ar
  23   13   18 1
  24   14   15 ar
  25   15   30 1
  26   16   17 1
  27   16   31 1
  28   16   32 1
  29   17   18 am
  30   17   24 1
  31   18   19 2
  32   21   22 1
  33   21   33 1
  34   21   34 1
  35   21   35 1
  36   22   36 1
  37   22   37 1
  38   23   24 1
  39   23   38 1
  40   23   39 1
  41   23   40 1
  42   24   41 1
  43   24   42 1
  44   25   26 1
  45   25   43 1
  46   25   44 1
  47   25   45 1
  48   26   46 1
  49   26   47 1

#	End of record

