#	Name: ASD01908264
#	Creating user name:	WinNT
#	Creation time:	15. 06. 2019 19:54

#	Modifying user name:	WinNT
#	Modification time:	15. 06. 2019 19:54

#	Program:	/corina/corina34_cracker 3.40 0067  02.08.2006

@<TRIPOS>MOLECULE
ASD01908264
  39   40    0    0    0
SMALL
NO_CHARGES


@<TRIPOS>ATOM
   1 C1            -0.2291     1.1819     0.0121 C.2     
   2 C2            -0.2749    -0.3101     0.2193 C.3     
   3 C3            -0.5693    -1.0013    -1.1136 C.3     
   4 O4             0.8312     1.7331    -0.1946 O.2     
   5 C5             1.0742    -0.7920     0.7566 C.3     
   6 N6            -1.3672     1.9028     0.0509 N.am    
   7 C7            -1.3343     3.3707    -0.0357 C.3     
   8 C8            -2.3112     3.8158    -1.1292 C.3     
   9 N9            -3.6356     3.2388    -0.8626 N.3     
  10 C10           -3.5992     1.7715    -0.9209 C.3     
  11 C11           -2.6754     1.2422     0.1749 C.3     
  12 C12           -4.5940     3.7527    -1.7455 C.ar    
  13 C13           -4.9498     5.0947    -1.6809 C.ar    
  14 C14           -5.8951     5.6010    -2.5519 C.ar    
  15 C15           -6.4895     4.7688    -3.4916 C.ar    
  16 C16           -6.1340     3.4283    -3.5554 C.ar    
  17 C17           -5.1842     2.9231    -2.6886 C.ar    
  18 Cl18          -4.2070     6.1342    -0.5056 Cl      
  19 N19           -7.4474     5.2816    -4.3743 N.pl3   
  20 H20           -1.0593    -0.5536     0.9359 H       
  21 H21            0.2151    -0.7579    -1.8302 H       
  22 H22           -0.6024    -2.0805    -0.9637 H       
  23 H23           -1.5304    -0.6580    -1.4964 H       
  24 H24            1.8446    -0.6291     0.0029 H       
  25 H25            1.3255    -0.2354     1.6594 H       
  26 H26            1.0135    -1.8550     0.9902 H       
  27 H27           -1.6338     3.8007     0.9201 H       
  28 H28           -0.3265     3.7000    -0.2889 H       
  29 H29           -2.3823     4.9035    -1.1326 H       
  30 H30           -1.9530     3.4712    -2.0992 H       
  31 H31           -4.6043     1.3765    -0.7733 H       
  32 H32           -3.2230     1.4554    -1.8939 H       
  33 H33           -2.5540     0.1650     0.0610 H       
  34 H34           -3.1063     1.4637     1.1514 H       
  35 H35           -6.1722     6.6436    -2.5018 H       
  36 H36           -6.5966     2.7813    -4.2860 H       
  37 H37           -4.9043     1.8814    -2.7420 H       
  38 H38           -7.6960     6.2182    -4.3296 H       
  39 H39           -7.8626     4.7005    -5.0307 H       
@<TRIPOS>BOND
   1    1    2 1
   2    1    4 2
   3    1    6 am
   4    2    3 1
   5    2    5 1
   6    2   20 1
   7    3   21 1
   8    3   22 1
   9    3   23 1
  10    5   24 1
  11    5   25 1
  12    5   26 1
  13    6    7 1
  14    6   11 1
  15    7    8 1
  16    7   27 1
  17    7   28 1
  18    8    9 1
  19    8   29 1
  20    8   30 1
  21    9   10 1
  22    9   12 1
  23   10   11 1
  24   10   31 1
  25   10   32 1
  26   11   33 1
  27   11   34 1
  28   12   13 ar
  29   12   17 ar
  30   13   14 ar
  31   13   18 1
  32   14   15 ar
  33   14   35 1
  34   15   16 ar
  35   15   19 1
  36   16   17 ar
  37   16   36 1
  38   17   37 1
  39   19   38 1
  40   19   39 1

#	End of record

