#	Name: ASD05323015
#	Creating user name:	WinNT
#	Creation time:	15. 06. 2019 20:59

#	Modifying user name:	WinNT
#	Modification time:	15. 06. 2019 20:59

#	Program:	/corina/corina34_cracker 3.40 0067  02.08.2006

@<TRIPOS>MOLECULE
ASD05323015
  43   45    0    0    0
SMALL
NO_CHARGES


@<TRIPOS>ATOM
   1 C1            -0.0187     1.5258     0.0104 C.3     
   2 C2             0.0021    -0.0041     0.0020 C.3     
   3 P3             1.6916     2.1568    -0.0025 P.3     
   4 O4             2.4039     1.7481    -1.3873 O.3     
   5 O5             1.6730     3.7605     0.1386 O.3     
   6 O6             2.4423     1.5705     1.1303 O.2     
   7 O7            -2.1040    -0.1936    -1.2201 O.3     
   8 C8            -1.4333    -0.5336     0.0129 C.3     
   9 C9            -1.4365    -2.0780     0.0510 C.3     
  10 C10           -2.6298    -2.4732    -0.8473 C.3     
  11 C11           -3.2065    -1.1210    -1.3219 C.3     
  12 O12           -3.6052    -3.1969    -0.0944 O.3     
  13 O13           -1.6384    -2.5455     1.3862 O.3     
  14 C14           -2.7750    -1.5107    -3.6751 C.2     
  15 N15           -3.1369    -1.6144    -4.9658 N.am    
  16 C16           -4.4225    -1.4259    -5.3306 C.2     
  17 C17           -5.4113    -1.1070    -4.2902 C.2     
  18 C18           -4.9830    -1.0151    -2.9969 C.2     
  19 N19           -3.6629    -1.2203    -2.7105 N.am    
  20 O20           -7.8652    -1.6624    -4.2487 O.3     
  21 C21           -6.8316    -0.8907    -4.6353 C.2     
  22 C22           -7.3221     0.1228    -5.3978 C.2     
  23 C23           -8.7189    -0.0592    -5.4657 C.2     
  24 C24           -9.0082    -1.1622    -4.7493 C.2     
  25 O25           -4.7566    -1.5177    -6.4975 O.2     
  26 O26           -1.6112    -1.6898    -3.3719 O.2     
  27 H27           -0.5459     1.8868    -0.8726 H       
  28 H28           -0.5289     1.8773     0.9072 H       
  29 H29            0.5123    -0.3556    -0.8948 H       
  30 H30            0.5293    -0.3651     0.8851 H       
  31 H31            1.9645     2.0987    -2.1741 H       
  32 H32            2.5511     4.1655     0.1390 H       
  33 H33           -1.9804    -0.1319     0.8657 H       
  34 H34           -0.5052    -2.4720    -0.3559 H       
  35 H35           -2.2885    -3.0626    -1.6983 H       
  36 H36           -4.0256    -0.8093    -0.6738 H       
  37 H37           -3.2777    -4.0268     0.2787 H       
  38 H38           -1.6492    -3.5089     1.4681 H       
  39 H39           -2.4705    -1.8256    -5.6382 H       
  40 H40           -5.6817    -0.7822    -2.2071 H       
  41 H41           -6.7521     0.9145    -5.8614 H       
  42 H42           -9.4234     0.5676    -5.9922 H       
  43 H43           -9.9946    -1.5764    -4.6018 H       
@<TRIPOS>BOND
   1    1    2 1
   2    1    3 1
   3    1   27 1
   4    1   28 1
   5    2    8 1
   6    2   29 1
   7    2   30 1
   8    3    4 1
   9    3    5 1
  10    3    6 2
  11    4   31 1
  12    5   32 1
  13    7    8 1
  14    7   11 1
  15    8    9 1
  16    8   33 1
  17    9   10 1
  18    9   13 1
  19    9   34 1
  20   10   11 1
  21   10   12 1
  22   10   35 1
  23   11   19 1
  24   11   36 1
  25   12   37 1
  26   13   38 1
  27   14   15 am
  28   14   19 am
  29   14   26 2
  30   15   16 am
  31   15   39 1
  32   16   17 1
  33   16   25 2
  34   17   18 2
  35   17   21 1
  36   18   19 1
  37   18   40 1
  38   20   21 1
  39   20   24 1
  40   21   22 2
  41   22   23 1
  42   22   41 1
  43   23   24 2
  44   23   42 1
  45   24   43 1

#	End of record

