#	Name: ASD01900196
#	Creating user name:	WinNT
#	Creation time:	15. 06. 2019 19:51

#	Modifying user name:	WinNT
#	Modification time:	15. 06. 2019 19:51

#	Program:	/corina/corina34_cracker 3.40 0067  02.08.2006

@<TRIPOS>MOLECULE
ASD01900196
  39   42    0    0    0
SMALL
NO_CHARGES


@<TRIPOS>ATOM
   1 C1             1.2928    -0.6048    -0.0314 C.ar    
   2 C2             0.0227    -0.0356    -0.0102 C.ar    
   3 C3            -0.0999     1.3467     0.0090 C.ar    
   4 C4             1.0513     2.1132     0.0063 C.ar    
   5 C5             2.2933     1.4793    -0.0153 C.ar    
   6 N6             2.3781     0.1614    -0.0333 N.ar    
   7 C7             1.4356    -2.0784    -0.0457 C.2     
   8 O8             0.4476    -2.7843    -0.0389 O.2     
   9 O9             2.6615    -2.6359    -0.0661 O.3     
  10 N10            3.4558     2.2436    -0.0186 N.pl3   
  11 S11            6.2512     2.4382    -0.0489 S.3     
  12 C12            4.6935     1.6238     0.0714 C.2     
  13 N13            4.8848     0.3530     0.2582 N.2     
  14 C14            6.1362    -0.0641     0.3351 C.2     
  15 C15            6.6305    -1.4372     0.6862 C.2     
  16 C16            7.7071    -1.5796     1.5854 C.2     
  17 C17            8.3150    -0.4235     2.3196 C.3     
  18 C18            9.2237     0.4369     1.4246 C.3     
  19 C19            8.5394     0.6134     0.0600 C.3     
  20 C20            7.0725     0.8976     0.1445 C.2     
  21 N21            7.9868    -2.8484     1.6598 N.2     
  22 N22            7.0734    -3.5527     0.8589 N.pl3   
  23 C23            6.2392    -2.6552     0.2773 C.2     
  24 C24            2.7257    -4.0865    -0.0792 C.3     
  25 H25           -0.8569    -0.6622    -0.0091 H       
  26 H26           -1.0735     1.8139     0.0252 H       
  27 H27            0.9890     3.1913     0.0206 H       
  28 H28            3.4008     3.2098    -0.0837 H       
  29 H29            7.5148     0.2027     2.7141 H       
  30 H30            8.9031    -0.8064     3.1536 H       
  31 H31            9.3754     1.4123     1.8870 H       
  32 H32           10.1839    -0.0614     1.2910 H       
  33 H33            9.0224     1.4365    -0.4665 H       
  34 H34            8.6834    -0.2977    -0.5208 H       
  35 H35            7.0441    -4.5151     0.7417 H       
  36 H36            5.4175    -2.8775    -0.3874 H       
  37 H37            3.7684    -4.4038    -0.0953 H       
  38 H38            2.2400    -4.4798     0.8138 H       
  39 H39            2.2171    -4.4647    -0.9660 H       
@<TRIPOS>BOND
   1    1    2 ar
   2    1    6 ar
   3    1    7 1
   4    2    3 ar
   5    2   25 1
   6    3    4 ar
   7    3   26 1
   8    4    5 ar
   9    4   27 1
  10    5    6 ar
  11    5   10 1
  12    7    8 2
  13    7    9 1
  14    9   24 1
  15   10   12 1
  16   10   28 1
  17   11   12 1
  18   11   20 1
  19   12   13 2
  20   13   14 1
  21   14   15 1
  22   14   20 2
  23   15   16 1
  24   15   23 2
  25   16   17 1
  26   16   21 2
  27   17   18 1
  28   17   29 1
  29   17   30 1
  30   18   19 1
  31   18   31 1
  32   18   32 1
  33   19   20 1
  34   19   33 1
  35   19   34 1
  36   21   22 1
  37   22   23 1
  38   22   35 1
  39   23   36 1
  40   24   37 1
  41   24   38 1
  42   24   39 1

#	End of record

