#	Name: ASD03082355
#	Creating user name:	WinNT
#	Creation time:	15. 06. 2019 20:27

#	Modifying user name:	WinNT
#	Modification time:	15. 06. 2019 20:27

#	Program:	/corina/corina34_cracker 3.40 0067  02.08.2006

@<TRIPOS>MOLECULE
ASD03082355
  42   44    0    0    0
SMALL
NO_CHARGES


@<TRIPOS>ATOM
   1 C1            -4.1135    -1.1439     0.1599 C.ar    
   2 C2            -3.0826    -0.5762     0.8970 C.ar    
   3 C3            -3.3335     0.5264     1.7041 C.ar    
   4 C4            -4.6071     1.0565     1.7725 C.ar    
   5 C5            -5.6347     0.4900     1.0380 C.ar    
   6 C6            -5.3877    -0.6103     0.2311 C.ar    
   7 F7            -6.3917    -1.1615    -0.4854 F       
   8 F8            -6.8797     1.0099     1.1074 F       
   9 N9            -1.7937    -1.1139     0.8273 N.pl3   
  10 C10           -1.6165    -2.4694     0.5310 C.2     
  11 C11           -0.3849    -3.1121     0.3174 C.2     
  12 N12           -2.5712    -3.3619     0.4100 N.2     
  13 N13           -1.9808    -4.5965     0.1104 N.pl3   
  14 C14           -0.6352    -4.4152     0.0593 C.2     
  15 C15           -2.6566    -5.8030    -0.0950 C.ar    
  16 C16           -2.1831    -6.9907     0.4589 C.ar    
  17 C17           -3.8246    -5.8480    -0.8543 C.ar    
  18 C18           -4.4617    -7.0585    -1.0335 C.ar    
  19 N19           -3.9786    -8.1631    -0.4969 N.ar    
  20 C20           -2.8792    -8.1606     0.2326 C.ar    
  21 C21           -5.7256    -7.1200    -1.8519 C.3     
  22 H22           -2.5167    -9.0867     0.6538 H       
  23 C23            0.3938    -5.4767    -0.2332 C.3     
  24 C24            0.9953    -5.9797     1.0806 C.3     
  25 C25            1.9273    -7.1298     0.7985 C.2     
  26 O26            2.5730    -7.7337     1.8086 O.3     
  27 O27            2.0934    -7.5083    -0.3368 O.2     
  28 H28           -3.9197    -1.9983    -0.4716 H       
  29 H29           -2.5328     0.9688     2.2782 H       
  30 H30           -4.8016     1.9136     2.4001 H       
  31 H31           -1.0225    -0.5469     0.9844 H       
  32 H32            0.5891    -2.6471     0.3528 H       
  33 H33           -1.2836    -6.9956     1.0566 H       
  34 H34           -4.2255    -4.9476    -1.2959 H       
  35 H35           -5.4734    -7.3025    -2.8965 H       
  36 H36           -6.3576    -7.9284    -1.4841 H       
  37 H37           -6.2598    -6.1738    -1.7671 H       
  38 H38           -0.0795    -6.3069    -0.7575 H       
  39 H39            1.1828    -5.0559    -0.8565 H       
  40 H40            1.5492    -5.1721     1.5593 H       
  41 H41            0.1958    -6.3137     1.7419 H       
  42 H42            3.1602    -8.4667     1.5784 H       
@<TRIPOS>BOND
   1    1    2 ar
   2    1    6 ar
   3    1   28 1
   4    2    3 ar
   5    2    9 1
   6    3    4 ar
   7    3   29 1
   8    4    5 ar
   9    4   30 1
  10    5    6 ar
  11    5    8 1
  12    6    7 1
  13    9   10 1
  14    9   31 1
  15   10   11 1
  16   10   12 2
  17   11   14 2
  18   11   32 1
  19   12   13 1
  20   13   14 1
  21   13   15 1
  22   14   23 1
  23   15   16 ar
  24   15   17 ar
  25   16   20 ar
  26   16   33 1
  27   17   18 ar
  28   17   34 1
  29   18   19 ar
  30   18   21 1
  31   19   20 ar
  32   20   22 1
  33   21   35 1
  34   21   36 1
  35   21   37 1
  36   23   24 1
  37   23   38 1
  38   23   39 1
  39   24   25 1
  40   24   40 1
  41   24   41 1
  42   25   26 1
  43   25   27 2
  44   26   42 1

#	End of record

