#	Name: ASD01814276
#	Creating user name:	WinNT
#	Creation time:	15. 06. 2019 19:32

#	Modifying user name:	WinNT
#	Modification time:	15. 06. 2019 19:32

#	Program:	/corina/corina34_cracker 3.40 0067  02.08.2006

@<TRIPOS>MOLECULE
ASD01814276
  53   57    0    0    0
SMALL
NO_CHARGES


@<TRIPOS>ATOM
   1 C1            -0.0168     1.3869     0.0097 C.ar    
   2 C2             0.0021    -0.0041     0.0020 C.ar    
   3 C3             1.1801    -0.6897    -0.0124 C.ar    
   4 C4             2.3948     0.0129    -0.0202 C.ar    
   5 C5             2.3717     1.4289    -0.0129 C.ar    
   6 C6             1.1455     2.1014     0.0024 C.ar    
   7 C7             3.6294    -0.6695    -0.0356 C.ar    
   8 C8             4.8032     0.0061    -0.0436 C.ar    
   9 C9             4.8361     1.4094    -0.0365 C.ar    
  10 C10            3.6406     2.1511    -0.0211 C.ar    
  11 C11            6.1027     2.1518    -0.0446 C.2     
  12 N12            6.0338     3.5033    -0.0368 N.am    
  13 C13            4.8295     4.1317    -0.0215 C.2     
  14 N14            3.6956     3.4935    -0.0149 N.2     
  15 C15            3.6424    -2.1764    -0.0428 C.3     
  16 C16            3.5088    -2.6732    -1.4593 C.ar    
  17 C17            4.6401    -2.8898    -2.2242 C.ar    
  18 C18            4.5204    -3.3452    -3.5229 C.ar    
  19 C19            3.2638    -3.5851    -4.0595 C.ar    
  20 C20            2.1303    -3.3669    -3.2900 C.ar    
  21 C21            2.2556    -2.9169    -1.9899 C.ar    
  22 O22            7.1745     1.5734    -0.0575 O.2     
  23 C23            7.2125     4.2596    -0.0440 C.ar    
  24 C24            7.8097     4.6290     1.1543 C.ar    
  25 C25            8.9721     5.3743     1.1438 C.ar    
  26 C26            9.5418     5.7529    -0.0583 C.ar    
  27 C27            8.9495     5.3871    -1.2529 C.ar    
  28 C28            7.7897     4.6368    -1.2491 C.ar    
  29 C29            7.1894     4.2173     2.4646 C.3     
  30 O30            3.1434    -4.0327    -5.3371 O.3     
  31 C31            1.8187    -4.2581    -5.8234 C.3     
  32 H32           -0.9630     1.9075     0.0169 H       
  33 H33           -0.9305    -0.5488     0.0080 H       
  34 H34            1.1786    -1.7697    -0.0175 H       
  35 H35            1.1188     3.1811     0.0085 H       
  36 H36            5.7316    -0.5454    -0.0554 H       
  37 H37            4.8124     5.2115    -0.0148 H       
  38 H38            4.5811    -2.5337     0.3806 H       
  39 H39            2.8096    -2.5498     0.5532 H       
  40 H40            5.6181    -2.7026    -1.8061 H       
  41 H41            5.4043    -3.5140    -4.1201 H       
  42 H42            1.1509    -3.5529    -3.7055 H       
  43 H43            1.3735    -2.7472    -1.3903 H       
  44 H44            9.4368     5.6621     2.0753 H       
  45 H45           10.4509     6.3358    -0.0639 H       
  46 H46            9.3965     5.6846    -2.1899 H       
  47 H47            7.3275     4.3513    -2.1826 H       
  48 H48            7.5942     3.2527     2.7710 H       
  49 H49            7.4165     4.9646     3.2248 H       
  50 H50            6.1089     4.1367     2.3456 H       
  51 H51            1.8651    -4.6126    -6.8531 H       
  52 H52            1.3264    -5.0070    -5.2030 H       
  53 H53            1.2541    -3.3265    -5.7850 H       
@<TRIPOS>BOND
   1    1    2 ar
   2    1    6 ar
   3    1   32 1
   4    2    3 ar
   5    2   33 1
   6    3    4 ar
   7    3   34 1
   8    4    5 ar
   9    4    7 ar
  10    5    6 ar
  11    5   10 ar
  12    6   35 1
  13    7    8 ar
  14    7   15 1
  15    8    9 ar
  16    8   36 1
  17    9   10 ar
  18    9   11 1
  19   10   14 1
  20   11   12 am
  21   11   22 2
  22   12   13 1
  23   12   23 1
  24   13   14 2
  25   13   37 1
  26   15   16 1
  27   15   38 1
  28   15   39 1
  29   16   17 ar
  30   16   21 ar
  31   17   18 ar
  32   17   40 1
  33   18   19 ar
  34   18   41 1
  35   19   20 ar
  36   19   30 1
  37   20   21 ar
  38   20   42 1
  39   21   43 1
  40   23   24 ar
  41   23   28 ar
  42   24   25 ar
  43   24   29 1
  44   25   26 ar
  45   25   44 1
  46   26   27 ar
  47   26   45 1
  48   27   28 ar
  49   27   46 1
  50   28   47 1
  51   29   48 1
  52   29   49 1
  53   29   50 1
  54   30   31 1
  55   31   51 1
  56   31   52 1
  57   31   53 1

#	End of record

