#	Name: ASD01120213
#	Creating user name:	WinNT
#	Creation time:	15. 06. 2019 18:59

#	Modifying user name:	WinNT
#	Modification time:	15. 06. 2019 18:59

#	Program:	/corina/corina34_cracker 3.40 0067  02.08.2006

@<TRIPOS>MOLECULE
ASD01120213
  29   31    0    0    0
SMALL
NO_CHARGES


@<TRIPOS>ATOM
   1 C1             0.1330     0.6981    -0.7872 C.ar    
   2 C2             0.2922    -0.6790    -0.7427 C.ar    
   3 C3             1.5476    -1.2336    -0.5842 C.ar    
   4 C4             2.6559    -0.4111    -0.4687 C.ar    
   5 C5             2.4988     0.9825    -0.5133 C.ar    
   6 C6             1.2258     1.5300    -0.6737 C.ar    
   7 O7             3.9796    -0.6412    -0.3086 O.3     
   8 C8             4.6089     0.5460    -0.2567 C.2     
   9 N9             3.7429     1.5194    -0.3769 N.2     
  10 N10            5.9664     0.7129    -0.0994 N.am    
  11 S11            6.6285     2.2289    -0.1753 S.o2    
  12 O12            5.8510     3.0499     0.6853 O.2     
  13 O13            8.0322     2.0614    -0.0307 O.2     
  14 C14            6.3651     2.8318    -1.8099 C.ar    
  15 C15            6.9574     2.1951    -2.8857 C.ar    
  16 C16            6.7502     2.6683    -4.1695 C.ar    
  17 C17            5.9513     3.7765    -4.3767 C.ar    
  18 C18            5.3585     4.4131    -3.3006 C.ar    
  19 C19            5.5622     3.9375    -2.0176 C.ar    
  20 Cl20           7.9610     0.8028    -2.6253 Cl      
  21 Cl21           4.3549     5.8055    -3.5610 Cl      
  22 Cl22          -1.0952    -1.7125    -0.8867 Cl      
  23 H23           -0.8525     1.1208    -0.9160 H       
  24 H24            1.6645    -2.3067    -0.5501 H       
  25 H25            1.0972     2.6017    -0.7092 H       
  26 H26            6.5350    -0.0574     0.0560 H       
  27 H27            7.2131     2.1716    -5.0093 H       
  28 H28            5.7899     4.1460    -5.3786 H       
  29 H29            5.0992     4.4342    -1.1778 H       
@<TRIPOS>BOND
   1    1    2 ar
   2    1    6 ar
   3    1   23 1
   4    2    3 ar
   5    2   22 1
   6    3    4 ar
   7    3   24 1
   8    4    5 ar
   9    4    7 1
  10    5    6 ar
  11    5    9 1
  12    6   25 1
  13    7    8 1
  14    8    9 2
  15    8   10 1
  16   10   11 am
  17   10   26 1
  18   11   12 2
  19   11   13 2
  20   11   14 1
  21   14   15 ar
  22   14   19 ar
  23   15   16 ar
  24   15   20 1
  25   16   17 ar
  26   16   27 1
  27   17   18 ar
  28   17   28 1
  29   18   19 ar
  30   18   21 1
  31   19   29 1

#	End of record

