#	Name: ASD03331447
#	Creating user name:	WinNT
#	Creation time:	15. 06. 2019 20:39

#	Modifying user name:	WinNT
#	Modification time:	15. 06. 2019 20:39

#	Program:	/corina/corina34_cracker 3.40 0067  02.08.2006

@<TRIPOS>MOLECULE
ASD03331447
  73   77    0    0    0
SMALL
NO_CHARGES


@<TRIPOS>ATOM
   1 N1            -1.0195     1.2087    -0.7729 N.am    
   2 C2            -1.0931    -0.2586    -0.7532 C.3     
   3 C3            -1.9314    -0.7263    -1.9470 C.3     
   4 C4            -1.3465    -0.1436    -3.2356 C.3     
   5 C5            -1.4004     1.3848    -3.1768 C.3     
   6 C6            -0.5560     1.8764    -1.9969 C.3     
   7 C7             0.0851    -0.5901    -3.3840 C.2     
   8 O8             0.9885     0.1540    -3.0661 O.2     
   9 N9             0.3615    -1.8165    -3.8699 N.am    
  10 N10           -2.1283    -0.6169    -4.3857 N.3     
  11 C11           -1.6344    -0.0263    -5.6368 C.3     
  12 C12           -2.5205    -0.4790    -6.7991 C.3     
  13 C13           -2.2406     0.1238    -8.1772 C.3     
  14 C14           -1.8723    -1.3332    -7.8905 C.3     
  15 C15           -1.3757     1.9287     0.3093 C.2     
  16 O16           -1.8425     1.3709     1.2841 O.2     
  17 N17           -1.6066     5.5616     0.4736 N.pl3   
  18 C18           -2.1719     4.3333     0.5711 C.2     
  19 C19           -1.1997     3.3911     0.3114 C.2     
  20 C20            0.0027     4.0967     0.0465 C.2     
  21 C21           -0.2767     5.4209     0.1528 C.2     
  22 C22           -3.6133     4.0474     0.9056 C.3     
  23 C23           -4.4349     3.9929    -0.3839 C.3     
  24 C24           -5.8982     3.7026    -0.0444 C.3     
  25 O25           -6.6656     3.6517    -1.2488 O.3     
  26 C26            0.6866     6.5258    -0.0427 C.ar    
  27 C27            1.9259     6.4977     0.6008 C.ar    
  28 C28            2.8208     7.5320     0.4136 C.ar    
  29 C29            2.4913     8.5952    -0.4100 C.ar    
  30 C30            1.2640     8.6283    -1.0498 C.ar    
  31 C31            0.3634     7.5976    -0.8753 C.ar    
  32 Cl32           3.6216     9.8925    -0.6407 Cl      
  33 Cl33           2.3398     5.1654     1.6340 Cl      
  34 C34           -2.2723     6.7801     0.6633 C.ar    
  35 C35           -2.0782     7.5039     1.8322 C.ar    
  36 C36           -2.7351     8.7047     2.0167 C.ar    
  37 C37           -3.5862     9.1866     1.0377 C.ar    
  38 C38           -3.7817     8.4669    -0.1280 C.ar    
  39 C39           -3.1227     7.2683    -0.3197 C.ar    
  40 Cl40          -4.4104    10.6963     1.2725 Cl      
  41 H41           -0.0887    -0.6758    -0.8262 H       
  42 H42           -1.5616    -0.5885     0.1740 H       
  43 H43           -1.9143    -1.8149    -1.9994 H       
  44 H44           -2.9591    -0.3836    -1.8264 H       
  45 H45           -1.0052     1.7987    -4.1044 H       
  46 H46           -2.4331     1.7076    -3.0446 H       
  47 H47           -0.6702     2.9552    -1.8903 H       
  48 H48            0.4921     1.6333    -2.1713 H       
  49 H49           -0.3565    -2.3841    -4.1912 H       
  50 H50            1.2785    -2.1315    -3.8984 H       
  51 H51           -2.1245    -1.6246    -4.4354 H       
  52 H52           -1.6618     1.0607    -5.5611 H       
  53 H53           -0.6094    -0.3525    -5.8129 H       
  54 H54           -3.5588    -0.6910    -6.5439 H       
  55 H55           -3.0948     0.3081    -8.8288 H       
  56 H56           -1.4253     0.8429    -8.2558 H       
  57 H57           -0.8146    -1.5727    -7.7804 H       
  58 H58           -2.4841    -2.1075    -8.3534 H       
  59 H59            0.9612     3.6615    -0.1951 H       
  60 H60           -3.6835     3.0900     1.4219 H       
  61 H61           -4.0002     4.8369     1.5498 H       
  62 H62           -4.3647     4.9503    -0.9002 H       
  63 H63           -4.0479     3.2034    -1.0282 H       
  64 H64           -5.9684     2.7453     0.4719 H       
  65 H65           -6.2852     4.4921     0.5999 H       
  66 H66           -7.6053     3.4711    -1.1091 H       
  67 H67            3.7794     7.5121     0.9107 H       
  68 H68            1.0127     9.4605    -1.6907 H       
  69 H69           -0.5916     7.6226    -1.3789 H       
  70 H70           -1.4144     7.1280     2.5967 H       
  71 H71           -2.5847     9.2678     2.9258 H       
  72 H72           -4.4467     8.8449    -0.8905 H       
  73 H73           -3.2718     6.7094    -1.2316 H       
@<TRIPOS>BOND
   1    1    2 1
   2    1    6 1
   3    1   15 am
   4    2    3 1
   5    2   41 1
   6    2   42 1
   7    3    4 1
   8    3   43 1
   9    3   44 1
  10    4    5 1
  11    4    7 1
  12    4   10 1
  13    5    6 1
  14    5   45 1
  15    5   46 1
  16    6   47 1
  17    6   48 1
  18    7    8 2
  19    7    9 am
  20    9   49 1
  21    9   50 1
  22   10   11 1
  23   10   51 1
  24   11   12 1
  25   11   52 1
  26   11   53 1
  27   12   13 1
  28   12   14 1
  29   12   54 1
  30   13   14 1
  31   13   55 1
  32   13   56 1
  33   14   57 1
  34   14   58 1
  35   15   16 2
  36   15   19 1
  37   17   18 1
  38   17   21 1
  39   17   34 1
  40   18   19 2
  41   18   22 1
  42   19   20 1
  43   20   21 2
  44   20   59 1
  45   21   26 1
  46   22   23 1
  47   22   60 1
  48   22   61 1
  49   23   24 1
  50   23   62 1
  51   23   63 1
  52   24   25 1
  53   24   64 1
  54   24   65 1
  55   25   66 1
  56   26   27 ar
  57   26   31 ar
  58   27   28 ar
  59   27   33 1
  60   28   29 ar
  61   28   67 1
  62   29   30 ar
  63   29   32 1
  64   30   31 ar
  65   30   68 1
  66   31   69 1
  67   34   35 ar
  68   34   39 ar
  69   35   36 ar
  70   35   70 1
  71   36   37 ar
  72   36   71 1
  73   37   38 ar
  74   37   40 1
  75   38   39 ar
  76   38   72 1
  77   39   73 1

#	End of record

