#	Name: ASD01940317
#	Creating user name:	WinNT
#	Creation time:	15. 06. 2019 20:12

#	Modifying user name:	WinNT
#	Modification time:	15. 06. 2019 20:12

#	Program:	/corina/corina34_cracker 3.40 0067  02.08.2006

@<TRIPOS>MOLECULE
ASD01940317
  29   30    0    0    0
SMALL
NO_CHARGES


@<TRIPOS>ATOM
   1 N1            -0.0169     1.3943     0.0097 N.pl3   
   2 C2             0.0089    -0.0006     0.1069 C.ar    
   3 C3             1.1988    -0.6566     0.4031 C.ar    
   4 C4             1.2196    -2.0376     0.4982 C.ar    
   5 C5             0.0567    -2.7634     0.2981 C.ar    
   6 C6            -1.1262    -2.1116     0.0037 C.ar    
   7 C7            -1.1548    -0.7331    -0.0866 C.ar    
   8 N8            -2.4245    -0.0377    -0.3954 N.pl3   
   9 O9            -2.7330     0.1810    -1.5532 O.2     
  10 O10           -3.1606     0.3159     0.5082 O.2     
  11 C11           -2.3885    -2.9058    -0.2131 C.3     
  12 C12            1.1745     2.1050    -0.1692 C.ar    
  13 C13            1.8552     2.0312    -1.3805 C.ar    
  14 C14            3.0320     2.7356    -1.5533 C.ar    
  15 C15            3.5323     3.5124    -0.5231 C.ar    
  16 C16            2.8574     3.5867     0.6816 C.ar    
  17 C17            1.6773     2.8901     0.8592 C.ar    
  18 I18            5.3165     4.5777    -0.7890 I       
  19 F19            1.3671     1.2721    -2.3858 F       
  20 F20            2.3741    -2.6775     0.7859 F       
  21 F21            2.3324     0.0524     0.5971 F       
  22 H22           -0.8614     1.8686     0.0624 H       
  23 H23            0.0745    -3.8407     0.3720 H       
  24 H24           -2.9063    -3.0317     0.7377 H       
  25 H25           -3.0356    -2.3758    -0.9119 H       
  26 H26           -2.1364    -3.8843    -0.6219 H       
  27 H27            3.5616     2.6793    -2.4929 H       
  28 H28            3.2511     4.1937     1.4835 H       
  29 H29            1.1491     2.9527     1.7991 H       
@<TRIPOS>BOND
   1    1    2 1
   2    1   12 1
   3    1   22 1
   4    2    3 ar
   5    2    7 ar
   6    3    4 ar
   7    3   21 1
   8    4    5 ar
   9    4   20 1
  10    5    6 ar
  11    5   23 1
  12    6    7 ar
  13    6   11 1
  14    7    8 1
  15    8    9 2
  16    8   10 2
  17   11   24 1
  18   11   25 1
  19   11   26 1
  20   12   13 ar
  21   12   17 ar
  22   13   14 ar
  23   13   19 1
  24   14   15 ar
  25   14   27 1
  26   15   16 ar
  27   15   18 1
  28   16   17 ar
  29   16   28 1
  30   17   29 1

#	End of record

