#	Name: ASD03731481
#	Creating user name:	WinNT
#	Creation time:	15. 06. 2019 20:45

#	Modifying user name:	WinNT
#	Modification time:	15. 06. 2019 20:45

#	Program:	/corina/corina34_cracker 3.40 0067  02.08.2006

@<TRIPOS>MOLECULE
ASD03731481
  61   67    0    0    0
SMALL
NO_CHARGES


@<TRIPOS>ATOM
   1 O1            -0.0173     1.4273     0.0099 O.3     
   2 C2             0.0021    -0.0041     0.0020 C.3     
   3 C3             1.0251    -0.4767     1.0438 C.3     
   4 O4             2.3065     0.0512     0.6845 O.3     
   5 C5             2.3513     1.3680     0.3416 C.ar    
   6 C6             1.1884     2.0556     0.0018 C.ar    
   7 C7             3.5686     2.0233     0.3321 C.ar    
   8 C8             3.6311     3.3738    -0.0203 C.ar    
   9 C9             2.4618     4.0568    -0.3622 C.ar    
  10 C10            1.2518     3.3986    -0.3499 C.ar    
  11 C11            4.9290     4.0767    -0.0308 C.2     
  12 O12            5.9458     3.4805     0.2675 O.2     
  13 N13            4.9871     5.3795    -0.3711 N.am    
  14 C14            6.2752     6.0772    -0.3816 C.3     
  15 C15            6.0631     7.5336    -0.7998 C.3     
  16 C16            7.4084     8.2622    -0.8107 C.3     
  17 O17            1.7898    12.7398    -0.5416 O.3     
  18 C18            1.1742    14.0294    -0.7175 C.3     
  19 O19            2.1889    14.9549    -0.2852 O.3     
  20 C20            3.3787    14.3206    -0.5016 C.ar    
  21 C21            3.1327    12.9584    -0.6581 C.ar    
  22 C22            4.6727    14.8032    -0.5799 C.ar    
  23 C23            5.7358    13.9360    -0.8129 C.ar    
  24 C24            5.4785    12.5763    -0.9593 C.ar    
  25 C25            4.1887    12.0927    -0.8879 C.ar    
  26 O26            7.0671    14.2035    -0.9412 O.3     
  27 C27            6.8109    11.9076    -1.1677 C.3     
  28 C28            7.8166    12.9884    -0.7481 C.3     
  29 N29            7.2053     9.6567    -1.2112 N.am    
  30 C30            6.9550    10.6593    -0.3457 C.2     
  31 C31            7.0160    11.4740    -2.5889 C.ar    
  32 C32            7.0111    12.1367    -3.7960 C.ar    
  33 C33            7.2404    11.4408    -4.9695 C.ar    
  34 C34            7.4737    10.0782    -4.9273 C.ar    
  35 C35            7.4787     9.4097    -3.7208 C.ar    
  36 C36            7.2492    10.1023    -2.5345 C.ar    
  37 O37            6.8644    10.5706     0.8605 O.2     
  38 H38           -0.9862    -0.3865     0.2575 H       
  39 H39            0.2913    -0.3623    -0.9860 H       
  40 H40            0.7405    -0.1114     2.0306 H       
  41 H41            1.0653    -1.5659     1.0518 H       
  42 H42            4.4705     1.4917     0.5973 H       
  43 H43            2.5064     5.1005    -0.6365 H       
  44 H44            0.3487     3.9283    -0.6149 H       
  45 H45            4.1759     5.8552    -0.6091 H       
  46 H46            6.7135     6.0458     0.6160 H       
  47 H47            6.9465     5.5901    -1.0888 H       
  48 H48            5.6248     7.5649    -1.7973 H       
  49 H49            5.3918     8.0206    -0.0925 H       
  50 H50            7.8467     8.2308     0.1868 H       
  51 H51            8.0797     7.7751    -1.5180 H       
  52 H52            0.9259    14.1955    -1.7658 H       
  53 H53            0.2847    14.1175    -0.0937 H       
  54 H54            4.8591    15.8602    -0.4594 H       
  55 H55            4.0021    11.0361    -1.0111 H       
  56 H56            8.6961    12.9696    -1.3917 H       
  57 H57            8.0985    12.8696     0.2981 H       
  58 H58            6.8285    13.2007    -3.8265 H       
  59 H59            7.2376    11.9603    -5.9163 H       
  60 H60            7.6526     9.5349    -5.8434 H       
  61 H61            7.6611     8.3455    -3.6960 H       
@<TRIPOS>BOND
   1    1    2 1
   2    1    6 1
   3    2    3 1
   4    2   38 1
   5    2   39 1
   6    3    4 1
   7    3   40 1
   8    3   41 1
   9    4    5 1
  10    5    6 ar
  11    5    7 ar
  12    6   10 ar
  13    7    8 ar
  14    7   42 1
  15    8    9 ar
  16    8   11 1
  17    9   10 ar
  18    9   43 1
  19   10   44 1
  20   11   12 2
  21   11   13 am
  22   13   14 1
  23   13   45 1
  24   14   15 1
  25   14   46 1
  26   14   47 1
  27   15   16 1
  28   15   48 1
  29   15   49 1
  30   16   29 1
  31   16   50 1
  32   16   51 1
  33   17   18 1
  34   17   21 1
  35   18   19 1
  36   18   52 1
  37   18   53 1
  38   19   20 1
  39   20   21 ar
  40   20   22 ar
  41   21   25 ar
  42   22   23 ar
  43   22   54 1
  44   23   24 ar
  45   23   26 1
  46   24   25 ar
  47   24   27 1
  48   25   55 1
  49   26   28 1
  50   27   28 1
  51   27   30 1
  52   27   31 1
  53   28   56 1
  54   28   57 1
  55   29   30 am
  56   29   36 1
  57   30   37 2
  58   31   32 ar
  59   31   36 ar
  60   32   33 ar
  61   32   58 1
  62   33   34 ar
  63   33   59 1
  64   34   35 ar
  65   34   60 1
  66   35   36 ar
  67   35   61 1

#	End of record

