#	Name: ASD01882386
#	Creating user name:	WinNT
#	Creation time:	15. 06. 2019 19:44

#	Modifying user name:	WinNT
#	Modification time:	15. 06. 2019 19:44

#	Program:	/corina/corina34_cracker 3.40 0067  02.08.2006

@<TRIPOS>MOLECULE
ASD01882386
  55   59    0    0    0
SMALL
NO_CHARGES


@<TRIPOS>ATOM
   1 C1            -0.0173     1.3150     0.3302 C.2     
   2 C2             0.0721    -0.0815     0.2013 C.2     
   3 C3             1.2731    -0.6445    -0.1353 C.2     
   4 C4             2.3966     0.1843    -0.3462 C.2     
   5 C5             2.2883     1.5211    -0.2171 C.2     
   6 N6             1.0954     2.0923     0.1181 N.pl3   
   7 N7            -0.5782     3.3519     0.6211 N.2     
   8 N8            -1.0092     2.1396     0.6303 N.2     
   9 C9             0.6922     3.3804     0.3154 C.2     
  10 N10            1.3864    -2.0251    -0.2685 N.pl3   
  11 C11            2.2058    -2.8030     0.6708 C.3     
  12 C12            3.2070    -3.6437    -0.1275 C.3     
  13 C13            2.4515    -4.4914    -1.1536 C.3     
  14 C14            1.7069    -3.5741    -2.1265 C.3     
  15 C15            0.6842    -2.7333    -1.3474 C.3     
  16 C16            3.4303    -5.3451    -1.9179 C.ar    
  17 C17            3.3196    -6.7226    -1.8837 C.ar    
  18 C18            4.2175    -7.5058    -2.5847 C.ar    
  19 C19            5.2257    -6.9114    -3.3202 C.ar    
  20 C20            5.3358    -5.5339    -3.3552 C.ar    
  21 C21            4.4354    -4.7506    -2.6577 C.ar    
  22 C22           -1.1392    -0.9481     0.4312 C.3     
  23 C23           -1.2699    -1.2563     1.9241 C.3     
  24 C24            1.5536     4.6115     0.2000 C.3     
  25 C25            1.5044     5.1356    -1.2366 C.3     
  26 C26            2.2238     6.4529    -1.5331 C.3     
  27 C27            2.8094     5.1316    -2.0352 C.3     
  28 H28            3.3468    -0.2551    -0.6116 H       
  29 H29            3.1537     2.1462    -0.3802 H       
  30 H30            2.7441    -2.1256     1.3338 H       
  31 H31            1.5641    -3.4594     1.2585 H       
  32 H32            3.9055    -2.9849    -0.6435 H       
  33 H33            3.7559    -4.2971     0.5507 H       
  34 H34            1.7357    -5.1322    -0.6387 H       
  35 H35            2.4195    -2.9159    -2.6236 H       
  36 H36            1.1881    -4.1779    -2.8709 H       
  37 H37           -0.0791    -3.3842    -0.9209 H       
  38 H38            0.2182    -2.0099    -2.0165 H       
  39 H39            2.5319    -7.1870    -1.3090 H       
  40 H40            4.1314    -8.5820    -2.5574 H       
  41 H41            5.9276    -7.5233    -3.8673 H       
  42 H42            6.1238    -5.0696    -3.9296 H       
  43 H43            4.5191    -3.6743    -2.6879 H       
  44 H44           -2.0314    -0.4236     0.0890 H       
  45 H45           -1.0301    -1.8797    -0.1240 H       
  46 H46           -0.3777    -1.7807     2.2662 H       
  47 H47           -1.3790    -0.3246     2.4792 H       
  48 H48           -2.1460    -1.8831     2.0904 H       
  49 H49            1.1834     5.3790     0.8796 H       
  50 H50            2.5820     4.3611     0.4603 H       
  51 H51            0.5811     4.9330    -1.7795 H       
  52 H52            1.7740     7.1169    -2.2713 H       
  53 H53            2.7322     6.9462    -0.7047 H       
  54 H54            3.7031     4.7557    -1.5371 H       
  55 H55            2.7450     4.9263    -3.1037 H       
@<TRIPOS>BOND
   1    1    2 1
   2    1    6 1
   3    1    8 2
   4    2    3 2
   5    2   22 1
   6    3    4 1
   7    3   10 1
   8    4    5 2
   9    4   28 1
  10    5    6 1
  11    5   29 1
  12    6    9 1
  13    7    8 1
  14    7    9 2
  15    9   24 1
  16   10   11 1
  17   10   15 1
  18   11   12 1
  19   11   30 1
  20   11   31 1
  21   12   13 1
  22   12   32 1
  23   12   33 1
  24   13   14 1
  25   13   16 1
  26   13   34 1
  27   14   15 1
  28   14   35 1
  29   14   36 1
  30   15   37 1
  31   15   38 1
  32   16   17 ar
  33   16   21 ar
  34   17   18 ar
  35   17   39 1
  36   18   19 ar
  37   18   40 1
  38   19   20 ar
  39   19   41 1
  40   20   21 ar
  41   20   42 1
  42   21   43 1
  43   22   23 1
  44   22   44 1
  45   22   45 1
  46   23   46 1
  47   23   47 1
  48   23   48 1
  49   24   25 1
  50   24   49 1
  51   24   50 1
  52   25   26 1
  53   25   27 1
  54   25   51 1
  55   26   27 1
  56   26   52 1
  57   26   53 1
  58   27   54 1
  59   27   55 1

#	End of record

