#	Name: ASD08150587
#	Creating user name:	WinNT
#	Creation time:	15. 06. 2019 21:16

#	Modifying user name:	WinNT
#	Modification time:	15. 06. 2019 21:16

#	Program:	/corina/corina34_cracker 3.40 0067  02.08.2006

@<TRIPOS>MOLECULE
ASD08150587
  62   67    0    0    0
SMALL
NO_CHARGES


@<TRIPOS>ATOM
   1 N1            -0.0801     1.1170     0.2864 N.am    
   2 C2            -0.4217    -0.1797     0.4156 C.2     
   3 C3             0.5620    -1.1893     0.4298 C.2     
   4 C4             1.8750    -0.8654     0.3122 C.2     
   5 C5             2.2378     0.4977     0.1756 C.ar    
   6 C6             3.5848     0.8879     0.0497 C.ar    
   7 N7             3.9166     2.1463    -0.0766 N.ar    
   8 C8             3.0052     3.1306    -0.0937 C.ar    
   9 C9             1.6260     2.8303     0.0270 C.ar    
  10 C10            1.2336     1.4782     0.1657 C.ar    
  11 C11            0.6841     3.8635     0.0090 C.ar    
  12 C12            1.1119     5.1744    -0.1273 C.ar    
  13 C13            2.4786     5.4638    -0.2463 C.ar    
  14 C14            3.4064     4.4697    -0.2310 C.ar    
  15 O15           -1.5975    -0.4841     0.5222 O.2     
  16 C16            0.1197     6.2761    -0.1479 C.ar    
  17 C17           -1.0771     2.1013     0.2698 C.ar    
  18 C18           -1.7814     2.3566    -0.9000 C.ar    
  19 C19           -2.7635     3.3260    -0.9166 C.ar    
  20 C20           -3.0480     4.0464     0.2370 C.ar    
  21 C21           -2.3438     3.7907     1.4067 C.ar    
  22 C22           -1.3649     2.8175     1.4242 C.ar    
  23 N23           -4.0424     5.0288     0.2202 N.3     
  24 C24           -5.0442     4.7820     1.2667 C.3     
  25 C25           -4.6768     5.1135    -1.1026 C.3     
  26 C26           -5.7012     6.2507    -1.1023 C.3     
  27 N27           -6.7029     6.0039    -0.0558 N.3     
  28 C28           -6.0685     5.9192     1.2670 C.3     
  29 N29           -1.1695     6.0080    -0.3071 N.ar    
  30 N30           -2.0605     6.9315    -0.3303 N.ar    
  31 C31           -1.7534     8.2121    -0.1970 C.ar    
  32 C32           -0.4242     8.5946    -0.0245 C.ar    
  33 C33            0.5392     7.6017     0.0064 C.ar    
  34 C34           -2.6518     4.5723     2.6578 C.3     
  35 F35           -1.4967     4.6738     3.4405 F       
  36 F36           -3.0938     5.8534     2.3104 F       
  37 F37           -3.6509     3.9153     3.3840 F       
  38 O38           -2.7317     9.1518    -0.2287 O.3     
  39 C39           -4.0546     8.7012    -0.5267 C.3     
  40 H40            0.2700    -2.2237     0.5350 H       
  41 H41            2.6322    -1.6354     0.3229 H       
  42 H42            4.3580     0.1340     0.0580 H       
  43 H43           -0.3689     3.6415     0.1002 H       
  44 H44            2.7987     6.4898    -0.3519 H       
  45 H45            4.4551     4.7106    -0.3239 H       
  46 H46           -1.5603     1.7966    -1.7966 H       
  47 H47           -3.3106     3.5250    -1.8262 H       
  48 H48           -0.8200     2.6161     2.3346 H       
  49 H49           -5.5502     3.8368     1.0701 H       
  50 H50           -4.5517     4.7359     2.2380 H       
  51 H51           -3.9165     5.3092    -1.8587 H       
  52 H52           -5.1787     4.1721    -1.3262 H       
  53 H53           -5.1951     7.1959    -0.9057 H       
  54 H54           -6.1937     6.2967    -2.0736 H       
  55 H55           -7.4207     6.7129    -0.0679 H       
  56 H56           -6.8289     5.7235     2.0231 H       
  57 H57           -5.5667     6.8606     1.4906 H       
  58 H58           -0.1546     9.6346     0.0855 H       
  59 H59            1.5837     7.8433     0.1375 H       
  60 H60           -4.7269     9.5575    -0.5792 H       
  61 H61           -4.0541     8.1805    -1.4843 H       
  62 H62           -4.3920     8.0218     0.2561 H       
@<TRIPOS>BOND
   1    1    2 am
   2    1   10 1
   3    1   17 1
   4    2    3 1
   5    2   15 2
   6    3    4 2
   7    3   40 1
   8    4    5 1
   9    4   41 1
  10    5    6 ar
  11    5   10 ar
  12    6    7 ar
  13    6   42 1
  14    7    8 ar
  15    8    9 ar
  16    8   14 ar
  17    9   10 ar
  18    9   11 ar
  19   11   12 ar
  20   11   43 1
  21   12   13 ar
  22   12   16 1
  23   13   14 ar
  24   13   44 1
  25   14   45 1
  26   16   29 ar
  27   16   33 ar
  28   17   18 ar
  29   17   22 ar
  30   18   19 ar
  31   18   46 1
  32   19   20 ar
  33   19   47 1
  34   20   21 ar
  35   20   23 1
  36   21   22 ar
  37   21   34 1
  38   22   48 1
  39   23   24 1
  40   23   25 1
  41   24   28 1
  42   24   49 1
  43   24   50 1
  44   25   26 1
  45   25   51 1
  46   25   52 1
  47   26   27 1
  48   26   53 1
  49   26   54 1
  50   27   28 1
  51   27   55 1
  52   28   56 1
  53   28   57 1
  54   29   30 ar
  55   30   31 ar
  56   31   32 ar
  57   31   38 1
  58   32   33 ar
  59   32   58 1
  60   33   59 1
  61   34   35 1
  62   34   36 1
  63   34   37 1
  64   38   39 1
  65   39   60 1
  66   39   61 1
  67   39   62 1

#	End of record

