#	Name: ASD02198435
#	Creating user name:	WinNT
#	Creation time:	15. 06. 2019 20:19

#	Modifying user name:	WinNT
#	Modification time:	15. 06. 2019 20:19

#	Program:	/corina/corina34_cracker 3.40 0067  02.08.2006

@<TRIPOS>MOLECULE
ASD02198435
  42   45    0    0    0
SMALL
NO_CHARGES


@<TRIPOS>ATOM
   1 C1             0.1399     2.1750     0.7421 C.ar    
   2 S2             0.0528     0.4536     0.3765 S.o2    
   3 N3             0.1679    -0.3594     1.8147 N.am    
   4 C4            -0.7938    -0.1637     2.8050 C.ar    
   5 C5            -0.4221    -0.1623     4.1680 C.ar    
   6 C6            -1.4199     0.0394     5.1526 C.ar    
   7 C7            -2.7551     0.2332     4.7621 C.ar    
   8 C8            -3.0841     0.2264     3.4408 C.ar    
   9 C9            -2.1131     0.0355     2.4618 C.ar    
  10 N10            0.8481    -0.3477     4.5357 N.ar    
  11 C11            1.1992    -0.3478     5.7989 C.ar    
  12 C12            0.2688    -0.1558     6.8176 C.ar    
  13 C13           -1.0475     0.0406     6.5101 C.ar    
  14 O14           -1.2583     0.2138    -0.1161 O.2     
  15 O15            1.2284     0.1392    -0.3573 O.2     
  16 C16            1.3641     2.8131     0.7697 C.ar    
  17 C17            1.4318     4.1705     1.0580 C.ar    
  18 C18            0.2671     4.8811     1.3175 C.ar    
  19 C19           -0.9542     4.2366     1.2882 C.ar    
  20 C20           -1.0186     2.8869     0.9954 C.ar    
  21 N21            2.6696     4.8194     1.0873 N.pl3   
  22 C22            2.7739     6.1330     0.6562 C.ar    
  23 N23            1.6985     6.7945     0.2388 N.ar    
  24 C24            4.0092     6.7846     0.6587 C.ar    
  25 C25            4.0610     8.0928     0.2197 C.ar    
  26 N26            2.9458     8.6833    -0.1865 N.ar    
  27 C27            1.7942     8.0430    -0.1716 C.ar    
  28 H28            0.9044    -0.9717     1.9681 H       
  29 H29           -3.5199     0.3870     5.5089 H       
  30 H30           -4.1128     0.3756     3.1479 H       
  31 H31           -2.3991     0.0342     1.4203 H       
  32 H32            2.2368    -0.5012     6.0564 H       
  33 H33            0.5879    -0.1617     7.8494 H       
  34 H34           -1.7824     0.1914     7.2870 H       
  35 H35            2.2680     2.2576     0.5678 H       
  36 H36            0.3163     5.9363     1.5423 H       
  37 H37           -1.8603     4.7886     1.4903 H       
  38 H38           -1.9749     2.3854     0.9731 H       
  39 H39            3.4555     4.3508     1.4092 H       
  40 H40            4.9015     6.2780     0.9958 H       
  41 H41            4.9987     8.6286     0.2079 H       
  42 H42            0.9050     8.5540    -0.5099 H       
@<TRIPOS>BOND
   1    1    2 1
   2    1   16 ar
   3    1   20 ar
   4    2    3 am
   5    2   14 2
   6    2   15 2
   7    3    4 1
   8    3   28 1
   9    4    5 ar
  10    4    9 ar
  11    5    6 ar
  12    5   10 ar
  13    6    7 ar
  14    6   13 ar
  15    7    8 ar
  16    7   29 1
  17    8    9 ar
  18    8   30 1
  19    9   31 1
  20   10   11 ar
  21   11   12 ar
  22   11   32 1
  23   12   13 ar
  24   12   33 1
  25   13   34 1
  26   16   17 ar
  27   16   35 1
  28   17   18 ar
  29   17   21 1
  30   18   19 ar
  31   18   36 1
  32   19   20 ar
  33   19   37 1
  34   20   38 1
  35   21   22 1
  36   21   39 1
  37   22   23 ar
  38   22   24 ar
  39   23   27 ar
  40   24   25 ar
  41   24   40 1
  42   25   26 ar
  43   25   41 1
  44   26   27 ar
  45   27   42 1

#	End of record

