#	Name: ASD01810115
#	Creating user name:	WinNT
#	Creation time:	15. 06. 2019 19:23

#	Modifying user name:	WinNT
#	Modification time:	15. 06. 2019 19:23

#	Program:	/corina/corina34_cracker 3.40 0067  02.08.2006

@<TRIPOS>MOLECULE
ASD01810115
  51   55    0    0    0
SMALL
NO_CHARGES


@<TRIPOS>ATOM
   1 C1            -0.0167     1.3820     0.0096 C.ar    
   2 C2             0.0021    -0.0041     0.0020 C.ar    
   3 C3             1.1959    -0.6932    -0.0127 C.ar    
   4 C4             2.4016     0.0019    -0.0200 C.ar    
   5 C5             2.3831     1.4075    -0.0128 C.ar    
   6 C6             1.1665     2.0939     0.0022 C.ar    
   7 N7             3.6010    -0.6771    -0.0337 N.pl3   
   8 C8             4.7870    -0.0549    -0.0404 C.2     
   9 C9             4.8957     1.3208    -0.0340 C.2     
  10 C10            3.6667     2.1313    -0.0207 C.2     
  11 O11            3.7091     3.3491    -0.0150 O.2     
  12 C12            6.2161     1.9660    -0.0412 C.2     
  13 O13            6.3092     3.3109    -0.0348 O.3     
  14 O14            7.2244     1.2870    -0.0529 O.2     
  15 C15            3.5775    -2.1419    -0.0409 C.3     
  16 C16            3.5572    -2.6371    -1.4640 C.ar    
  17 C17            4.7461    -2.8830    -2.1261 C.ar    
  18 C18            4.7306    -3.3364    -3.4307 C.ar    
  19 C19            3.5200    -3.5457    -4.0770 C.ar    
  20 C20            2.3281    -3.2984    -3.4096 C.ar    
  21 C21            2.3498    -2.8500    -2.1034 C.ar    
  22 N22            3.5011    -4.0055    -5.4014 N.pl3   
  23 F23            1.1476     3.4448     0.0091 F       
  24 C24            2.3880    -4.2544    -6.1584 C.2     
  25 C25            2.8276    -4.6807    -7.3711 C.2     
  26 N26            4.1760    -4.6877    -7.3435 N.2     
  27 C27            4.5846    -4.2812    -6.1742 C.2     
  28 C28            1.9756    -5.0701    -8.5215 C.ar    
  29 C29            2.5607    -5.4911    -9.7143 C.ar    
  30 C30            1.7632    -5.8527   -10.7810 C.ar    
  31 C31            0.3857    -5.7978   -10.6680 C.ar    
  32 C32           -0.2004    -5.3807    -9.4865 C.ar    
  33 C33            0.5872    -5.0218    -8.4115 C.ar    
  34 H34           -0.9604     1.9071     0.0170 H       
  35 H35           -0.9295    -0.5505     0.0080 H       
  36 H36            1.1956    -1.7731    -0.0181 H       
  37 H37            5.6884    -0.6497    -0.0508 H       
  38 H38            7.1990     3.6894    -0.0400 H       
  39 H39            4.4660    -2.5220     0.4634 H       
  40 H40            2.6863    -2.4936     0.4789 H       
  41 H41            5.6876    -2.7199    -1.6227 H       
  42 H42            5.6595    -3.5276    -3.9475 H       
  43 H43            1.3847    -3.4600    -3.9101 H       
  44 H44            1.4229    -2.6574    -1.5836 H       
  45 H45            1.3595    -4.1354    -5.8510 H       
  46 H46            5.6157    -4.1860    -5.8673 H       
  47 H47            3.6361    -5.5340    -9.8037 H       
  48 H48            2.2155    -6.1788   -11.7059 H       
  49 H49           -0.2346    -6.0814   -11.5054 H       
  50 H50           -1.2765    -5.3394    -9.4038 H       
  51 H51            0.1285    -4.6963    -7.4895 H       
@<TRIPOS>BOND
   1    1    2 ar
   2    1    6 ar
   3    1   34 1
   4    2    3 ar
   5    2   35 1
   6    3    4 ar
   7    3   36 1
   8    4    5 ar
   9    4    7 1
  10    5    6 ar
  11    5   10 1
  12    6   23 1
  13    7    8 1
  14    7   15 1
  15    8    9 2
  16    8   37 1
  17    9   10 1
  18    9   12 1
  19   10   11 2
  20   12   13 1
  21   12   14 2
  22   13   38 1
  23   15   16 1
  24   15   39 1
  25   15   40 1
  26   16   17 ar
  27   16   21 ar
  28   17   18 ar
  29   17   41 1
  30   18   19 ar
  31   18   42 1
  32   19   20 ar
  33   19   22 1
  34   20   21 ar
  35   20   43 1
  36   21   44 1
  37   22   24 1
  38   22   27 1
  39   24   25 2
  40   24   45 1
  41   25   26 1
  42   25   28 1
  43   26   27 2
  44   27   46 1
  45   28   29 ar
  46   28   33 ar
  47   29   30 ar
  48   29   47 1
  49   30   31 ar
  50   30   48 1
  51   31   32 ar
  52   31   49 1
  53   32   33 ar
  54   32   50 1
  55   33   51 1

#	End of record

