#	Name: ASD03240319
#	Creating user name:	WinNT
#	Creation time:	15. 06. 2019 20:34

#	Modifying user name:	WinNT
#	Modification time:	15. 06. 2019 20:34

#	Program:	/corina/corina34_cracker 3.40 0067  02.08.2006

@<TRIPOS>MOLECULE
ASD03240319
  97  101    0    0    0
SMALL
NO_CHARGES


@<TRIPOS>ATOM
   1 C1             0.4011     2.6209     1.9831 C.2     
   2 N2             0.6361     1.8748     3.1137 N.pl3   
   3 O3            -3.2564     4.1508     1.4830 O.2     
   4 C4            -2.5201     4.4437     0.5649 C.2     
   5 C5            -1.0918     3.9632     0.5618 C.3     
   6 N6            -0.8414     3.1682     1.7665 N.pl3   
   7 N7             1.3578     2.8140     1.1192 N.2     
   8 N8            -2.9793     5.1988    -0.4526 N.am    
   9 C9            -4.3257     5.5490    -0.5073 C.ar    
  10 C10           -4.7056     6.7952    -1.0272 C.ar    
  11 C11           -6.0502     7.1404    -1.0803 C.ar    
  12 C12           -7.0146     6.2453    -0.6161 C.ar    
  13 C13           -6.6261     5.0053    -0.0995 C.ar    
  14 C14           -5.2932     4.6615    -0.0521 C.ar    
  15 C15           -8.4445     6.6073    -0.6698 C.2     
  16 N16           -9.3759     5.7426    -0.2214 N.am    
  17 O17           -8.7821     7.6859    -1.1187 O.2     
  18 C18          -10.7200     6.1317    -0.1578 C.ar    
  19 C19          -11.7240     5.1750    -0.2310 C.ar    
  20 C20          -11.0484     7.4735    -0.0160 C.ar    
  21 C21          -12.3732     7.8571     0.0466 C.ar    
  22 C22          -13.3775     6.9010    -0.0322 C.ar    
  23 C23          -13.0488     5.5584    -0.1684 C.ar    
  24 N24          -14.7199     7.2896     0.0316 N.pl3   
  25 C25          -15.7791     6.2810    -0.0515 C.3     
  26 C26          -15.0664     8.7051     0.1816 C.3     
  27 C27           -3.6757     7.7409    -1.5179 C.ar    
  28 C28           -3.8092     8.3246    -2.7784 C.ar    
  29 C29           -2.8533     9.2030    -3.2353 C.ar    
  30 C30           -1.7485     9.5105    -2.4361 C.ar    
  31 C31           -1.6160     8.9252    -1.1737 C.ar    
  32 C32           -2.5761     8.0514    -0.7167 C.ar    
  33 C33          -15.2109     9.3339    -1.1802 C.ar    
  34 C34          -16.1167     5.7916     1.3333 C.ar    
  35 C35          -16.4402     9.3385    -1.8125 C.ar    
  36 C36          -16.5727     9.9153    -3.0617 C.ar    
  37 C37          -15.4761    10.4879    -3.6785 C.ar    
  38 C38          -14.2470    10.4842    -3.0458 C.ar    
  39 C39          -14.1154     9.9112    -1.7947 C.ar    
  40 C40          -17.0982     6.4270     2.0708 C.ar    
  41 C41          -17.4077     5.9782     3.3410 C.ar    
  42 C42          -16.7361     4.8937     3.8737 C.ar    
  43 C43          -15.7552     4.2577     3.1358 C.ar    
  44 C44          -15.4487     4.7039     1.8639 C.ar    
  45 C45          -15.6204    11.1159    -5.0408 C.3     
  46 C46          -17.0729     4.4050     5.2589 C.3     
  47 C47          -17.5491     2.9528     5.1856 C.3     
  48 C48          -15.8292     4.4897     6.1460 C.3     
  49 C49          -15.2407    12.5960    -4.9630 C.3     
  50 C50          -14.6966    10.4038    -6.0311 C.3     
  51 C51           -0.7530    10.4241    -2.9105 C.1     
  52 N52            0.0368    11.1488    -3.2868 N.1     
  53 H53            1.5139     1.4921     3.2684 H       
  54 H54           -0.0759     1.7312     3.7566 H       
  55 H55           -0.9169     3.3492    -0.3216 H       
  56 H56           -0.4198     4.8213     0.5466 H       
  57 H57           -1.5522     3.0279     2.4115 H       
  58 H58            1.1920     3.3404     0.3215 H       
  59 H59           -2.3717     5.4984    -1.1469 H       
  60 H60           -6.3481     8.0987    -1.4793 H       
  61 H61           -7.3736     4.3134     0.2594 H       
  62 H62           -4.9985     3.7026     0.3479 H       
  63 H63           -9.1154     4.8507     0.0574 H       
  64 H64          -11.4684     4.1311    -0.3371 H       
  65 H65          -10.2675     8.2170     0.0456 H       
  66 H66          -12.6286     8.9007     0.1572 H       
  67 H67          -13.8296     4.8148    -0.2300 H       
  68 H68          -16.6657     6.7219    -0.5072 H       
  69 H69          -15.4366     5.4435    -0.6593 H       
  70 H70          -16.0076     8.7932     0.7243 H       
  71 H71          -14.2784     9.2153     0.7357 H       
  72 H72           -4.6627     8.0865    -3.3958 H       
  73 H73           -2.9566     9.6544    -4.2110 H       
  74 H74           -0.7628     9.1620    -0.5553 H       
  75 H75           -2.4741     7.5993     0.2588 H       
  76 H76          -17.2969     8.8911    -1.3306 H       
  77 H77          -17.5329     9.9182    -3.5560 H       
  78 H78          -13.3902    10.9313    -3.5278 H       
  79 H79          -13.1552     9.9083    -1.3004 H       
  80 H80          -17.6229     7.2743     1.6546 H       
  81 H81          -18.1740     6.4750     3.9175 H       
  82 H82          -15.2303     3.4107     3.5521 H       
  83 H83          -14.6824     4.2070     1.2874 H       
  84 H84          -16.6533    11.0229    -5.3762 H       
  85 H85          -17.8632     5.0257     5.6810 H       
  86 H86          -16.7588     2.3321     4.7635 H       
  87 H87          -17.7927     2.5994     6.1875 H       
  88 H88          -18.4352     2.8925     4.5536 H       
  89 H89          -15.4899     5.5242     6.1982 H       
  90 H90          -16.0728     4.1362     7.1479 H       
  91 H91          -15.0389     3.8690     5.7239 H       
  92 H92          -15.8988    13.1033    -4.2575 H       
  93 H93          -14.2077    12.6889    -4.6276 H       
  94 H94          -15.3450    13.0502    -5.9483 H       
  95 H95          -14.9671     9.3494    -6.0865 H       
  96 H96          -14.8010    10.8580    -7.0164 H       
  97 H97          -13.6637    10.4968    -5.6957 H       
@<TRIPOS>BOND
   1    1    2 1
   2    1    7 2
   3    1    6 1
   4    2   53 1
   5    2   54 1
   6    3    4 2
   7    4    5 1
   8    4    8 am
   9    5    6 1
  10    5   55 1
  11    5   56 1
  12    6   57 1
  13    7   58 1
  14    8    9 1
  15    8   59 1
  16    9   10 ar
  17    9   14 ar
  18   10   11 ar
  19   10   27 1
  20   11   12 ar
  21   11   60 1
  22   12   13 ar
  23   12   15 1
  24   13   14 ar
  25   13   61 1
  26   14   62 1
  27   15   16 am
  28   15   17 2
  29   16   18 1
  30   16   63 1
  31   18   19 ar
  32   18   20 ar
  33   19   23 ar
  34   19   64 1
  35   20   21 ar
  36   20   65 1
  37   21   22 ar
  38   21   66 1
  39   22   23 ar
  40   22   24 1
  41   23   67 1
  42   24   25 1
  43   24   26 1
  44   25   34 1
  45   25   68 1
  46   25   69 1
  47   26   33 1
  48   26   70 1
  49   26   71 1
  50   27   28 ar
  51   27   32 ar
  52   28   29 ar
  53   28   72 1
  54   29   30 ar
  55   29   73 1
  56   30   31 ar
  57   30   51 1
  58   31   32 ar
  59   31   74 1
  60   32   75 1
  61   33   35 ar
  62   33   39 ar
  63   34   40 ar
  64   34   44 ar
  65   35   36 ar
  66   35   76 1
  67   36   37 ar
  68   36   77 1
  69   37   38 ar
  70   37   45 1
  71   38   39 ar
  72   38   78 1
  73   39   79 1
  74   40   41 ar
  75   40   80 1
  76   41   42 ar
  77   41   81 1
  78   42   43 ar
  79   42   46 1
  80   43   44 ar
  81   43   82 1
  82   44   83 1
  83   45   49 1
  84   45   50 1
  85   45   84 1
  86   46   47 1
  87   46   48 1
  88   46   85 1
  89   47   86 1
  90   47   87 1
  91   47   88 1
  92   48   89 1
  93   48   90 1
  94   48   91 1
  95   49   92 1
  96   49   93 1
  97   49   94 1
  98   50   95 1
  99   50   96 1
 100   50   97 1
 101   51   52 3

#	End of record

