#	Name: ASD07300502
#	Creating user name:	WinNT
#	Creation time:	15. 06. 2019 21:09

#	Modifying user name:	WinNT
#	Modification time:	15. 06. 2019 21:09

#	Program:	/corina/corina34_cracker 3.40 0067  02.08.2006

@<TRIPOS>MOLECULE
ASD07300502
  38   42    0    0    0
SMALL
NO_CHARGES


@<TRIPOS>ATOM
   1 C1            -0.4126     1.2366    -0.7447 C.ar    
   2 C2            -0.4852    -0.1278    -1.0342 C.ar    
   3 C3             0.6791    -0.8806    -1.0424 C.ar    
   4 C4             1.8777    -0.2411    -0.7602 C.ar    
   5 C5             1.8747     1.1126    -0.4824 C.ar    
   6 N6             0.7517     1.8051    -0.4809 N.ar    
   7 O7            -1.7867    -0.4262    -1.2592 O.3     
   8 C8            -2.5216     0.6892    -1.1225 C.2     
   9 N9            -1.7161     1.7213    -0.8038 N.am    
  10 O10           -3.7278     0.7566    -1.2604 O.2     
  11 C11           -2.1178     3.0467    -0.5800 C.ar    
  12 C12           -3.4598     3.3904    -0.6728 C.ar    
  13 C13           -3.8553     4.6945    -0.4523 C.ar    
  14 C14           -2.9106     5.6628    -0.1376 C.ar    
  15 C15           -1.5682     5.3187    -0.0448 C.ar    
  16 C16           -1.1738     4.0134    -0.2602 C.ar    
  17 N17           -3.3113     6.9853     0.0857 N.pl3   
  18 O18           -5.0877     8.4753     0.7589 O.3     
  19 C19           -4.5585     7.2482     0.6080 C.2     
  20 N20           -5.4016     6.3404     1.0295 N.2     
  21 C21           -6.5266     6.9631     1.4759 C.ar    
  22 C22           -6.3204     8.3400     1.2998 C.ar    
  23 C23           -7.7271     6.5086     2.0226 C.ar    
  24 C24           -8.6997     7.4151     2.3848 C.ar    
  25 C25           -8.4919     8.7742     2.2091 C.ar    
  26 C26           -7.3082     9.2374     1.6699 C.ar    
  27 H27            0.6537    -1.9376    -1.2624 H       
  28 H28            2.8042    -0.7960    -0.7573 H       
  29 H29            2.8067     1.6117    -0.2622 H       
  30 H30           -4.1943     2.6375    -0.9179 H       
  31 H31           -4.8992     4.9618    -0.5248 H       
  32 H32           -0.8333     6.0715     0.1995 H       
  33 H33           -0.1305     3.7449    -0.1837 H       
  34 H34           -2.7108     7.7166    -0.1275 H       
  35 H35           -7.8935     5.4505     2.1611 H       
  36 H36           -9.6295     7.0645     2.8078 H       
  37 H37           -9.2612     9.4758     2.4962 H       
  38 H38           -7.1532    10.2978     1.5362 H       
@<TRIPOS>BOND
   1    1    2 ar
   2    1    6 ar
   3    1    9 1
   4    2    3 ar
   5    2    7 1
   6    3    4 ar
   7    3   27 1
   8    4    5 ar
   9    4   28 1
  10    5    6 ar
  11    5   29 1
  12    7    8 1
  13    8    9 am
  14    8   10 2
  15    9   11 1
  16   11   12 ar
  17   11   16 ar
  18   12   13 ar
  19   12   30 1
  20   13   14 ar
  21   13   31 1
  22   14   15 ar
  23   14   17 1
  24   15   16 ar
  25   15   32 1
  26   16   33 1
  27   17   19 1
  28   17   34 1
  29   18   19 1
  30   18   22 1
  31   19   20 2
  32   20   21 1
  33   21   22 ar
  34   21   23 ar
  35   22   26 ar
  36   23   24 ar
  37   23   35 1
  38   24   25 ar
  39   24   36 1
  40   25   26 ar
  41   25   37 1
  42   26   38 1

#	End of record

