#	Name: ASD09740286
#	Creating user name:	WinNT
#	Creation time:	15. 06. 2019 21:23

#	Modifying user name:	WinNT
#	Modification time:	15. 06. 2019 21:23

#	Program:	/corina/corina34_cracker 3.40 0067  02.08.2006

@<TRIPOS>MOLECULE
ASD09740286
  46   49    0    0    0
SMALL
NO_CHARGES


@<TRIPOS>ATOM
   1 N1            -0.0144     1.2085     0.0087 N.2     
   2 O2             0.0021    -0.0041     0.0020 O.3     
   3 C3             1.2066     1.6802    -0.0004 C.2     
   4 N4             2.0464     0.6239    -0.0141 N.2     
   5 C5             1.2701    -0.4442    -0.0125 C.2     
   6 C6             1.7123    -1.8533    -0.0242 C.ar    
   7 C7             1.5954     3.1119     0.0031 C.ar    
   8 C8             0.6161     4.1053     0.0178 C.ar    
   9 C9             0.9853     5.4289     0.0210 C.ar    
  10 C10            2.3263     5.7969     0.0096 C.ar    
  11 C11            3.3038     4.8012    -0.0054 C.ar    
  12 C12            2.9421     3.4731    -0.0025 C.ar    
  13 C13            3.0745    -2.1589    -0.0389 C.ar    
  14 C14            3.4858    -3.4751    -0.0499 C.ar    
  15 C15            2.5486    -4.4980    -0.0465 C.ar    
  16 C16            1.1870    -4.1998    -0.0319 C.ar    
  17 C17            0.7684    -2.8833    -0.0150 C.ar    
  18 O18            2.9588    -5.7932    -0.0579 O.3     
  19 O19            0.2707    -5.2048    -0.0286 O.3     
  20 C20           -1.1072    -4.8264    -0.0134 C.3     
  21 C21           -1.9810    -6.0823    -0.0118 C.3     
  22 C22            4.3684    -6.0272    -0.0731 C.3     
  23 C23            4.6352    -7.5337    -0.0842 C.3     
  24 C24            0.1919     6.7155     0.0362 C.3     
  25 C25            1.2491     7.7990     0.0318 C.2     
  26 N26            2.4443     7.1857     0.0163 N.am    
  27 O27            1.0538     8.9960     0.0401 O.2     
  28 H28           -0.4295     3.8348     0.0264 H       
  29 H29            4.3488     5.0738    -0.0146 H       
  30 H30            3.7042     2.7080    -0.0142 H       
  31 H31            3.8061    -1.3645    -0.0419 H       
  32 H32            4.5398    -3.7101    -0.0616 H       
  33 H33           -0.2862    -2.6508    -0.0037 H       
  34 H34           -1.3130    -4.2395     0.8818 H       
  35 H35           -1.3299    -4.2299    -0.8981 H       
  36 H36           -3.0320    -5.7937    -0.0003 H       
  37 H37           -1.7752    -6.6692    -0.9070 H       
  38 H38           -1.7582    -6.6788     0.8729 H       
  39 H39            4.8022    -5.5747    -0.9648 H       
  40 H40            4.8197    -5.5848     0.8150 H       
  41 H41            5.7105    -7.7122    -0.0958 H       
  42 H42            4.2014    -7.9861     0.8075 H       
  43 H43            4.1839    -7.9761    -0.9723 H       
  44 H44           -0.4340     6.7888    -0.8532 H       
  45 H45           -0.4161     6.7787     0.9387 H       
  46 H46            3.2928     7.6558     0.0111 H       
@<TRIPOS>BOND
   1    1    2 1
   2    1    3 2
   3    2    5 1
   4    3    4 1
   5    3    7 1
   6    4    5 2
   7    5    6 1
   8    6   13 ar
   9    6   17 ar
  10    7    8 ar
  11    7   12 ar
  12    8    9 ar
  13    8   28 1
  14    9   10 ar
  15    9   24 1
  16   10   11 ar
  17   10   26 1
  18   11   12 ar
  19   11   29 1
  20   12   30 1
  21   13   14 ar
  22   13   31 1
  23   14   15 ar
  24   14   32 1
  25   15   16 ar
  26   15   18 1
  27   16   17 ar
  28   16   19 1
  29   17   33 1
  30   18   22 1
  31   19   20 1
  32   20   21 1
  33   20   34 1
  34   20   35 1
  35   21   36 1
  36   21   37 1
  37   21   38 1
  38   22   23 1
  39   22   39 1
  40   22   40 1
  41   23   41 1
  42   23   42 1
  43   23   43 1
  44   24   25 1
  45   24   44 1
  46   24   45 1
  47   25   26 am
  48   25   27 2
  49   26   46 1

#	End of record

