#	Name: ASD01915786
#	Creating user name:	WinNT
#	Creation time:	15. 06. 2019 20:06

#	Modifying user name:	WinNT
#	Modification time:	15. 06. 2019 20:06

#	Program:	/corina/corina34_cracker 3.40 0067  02.08.2006

@<TRIPOS>MOLECULE
ASD01915786
  48   51    0    0    0
SMALL
NO_CHARGES


@<TRIPOS>ATOM
   1 C1            -0.0040     1.4470     0.1583 C.2     
   2 N2             0.0537     0.0899    -0.0677 N.pl3   
   3 C3            -1.1650    -0.6937    -0.3028 C.3     
   4 C4            -2.3316    -0.0497     0.4445 C.3     
   5 N5            -2.4034     1.3925     0.2372 N.am    
   6 C6            -1.2881     2.1616     0.2144 C.2     
   7 C7             1.2825     1.8821     0.3106 C.2     
   8 C8             2.0726     0.7325     0.1765 C.2     
   9 N9             1.2726    -0.2855    -0.0402 N.2     
  10 C10            3.5759     0.6751     0.2646 C.3     
  11 O11            4.0891     1.9861     0.5091 O.3     
  12 C12            5.4382     2.1105     0.6165 C.ar    
  13 O13           -1.3458     3.3764     0.2394 O.2     
  14 C14            6.0046     3.3545     0.8537 C.ar    
  15 C15            6.2508     0.9927     0.4948 C.ar    
  16 C16            7.6219     1.1218     0.6043 C.ar    
  17 C17            8.1843     2.3637     0.8350 C.ar    
  18 C18            7.3761     3.4783     0.9624 C.ar    
  19 C19           -3.6496     1.9939     0.0577 C.ar    
  20 N20           -3.7166     3.2484    -0.3574 N.ar    
  21 C21           -4.8068     1.2661     0.3118 C.ar    
  22 C22           -6.0372     1.8712     0.1309 C.ar    
  23 C23           -6.0682     3.1960    -0.3020 C.ar    
  24 C24           -4.8725     3.8573    -0.5409 C.ar    
  25 N25           -7.2904     3.8487    -0.4986 N.pl3   
  26 C26           -8.5463     3.1041    -0.3773 C.3     
  27 C27           -7.3140     5.2765    -0.8256 C.3     
  28 H28           -1.3839    -0.7144    -1.3704 H       
  29 H29           -1.0186    -1.7114     0.0589 H       
  30 H30           -3.2622    -0.5017     0.1013 H       
  31 H31           -2.2188    -0.2471     1.5106 H       
  32 H32            1.6174     2.8923     0.4943 H       
  33 H33            3.8671     0.0130     1.0800 H       
  34 H34            3.9806     0.2956    -0.6737 H       
  35 H35            5.3738     4.2255     0.9529 H       
  36 H36            5.8120     0.0225     0.3150 H       
  37 H37            8.2549     0.2519     0.5100 H       
  38 H38            9.2564     2.4625     0.9203 H       
  39 H39            7.8179     4.4473     1.1422 H       
  40 H40           -4.7456     0.2409     0.6460 H       
  41 H41           -6.9524     1.3300     0.3203 H       
  42 H42           -4.8879     4.8837    -0.8765 H       
  43 H43           -8.8966     3.1481     0.6540 H       
  44 H44           -9.2953     3.5455    -1.0346 H       
  45 H45           -8.3812     2.0647    -0.6609 H       
  46 H46           -6.3011     5.6764    -0.7803 H       
  47 H47           -7.7138     5.4125    -1.8305 H       
  48 H48           -7.9449     5.8029    -0.1094 H       
@<TRIPOS>BOND
   1    1    2 1
   2    1    7 2
   3    1    6 1
   4    2    3 1
   5    2    9 1
   6    3    4 1
   7    3   28 1
   8    3   29 1
   9    4    5 1
  10    4   30 1
  11    4   31 1
  12    5    6 am
  13    5   19 1
  14    6   13 2
  15    7    8 1
  16    7   32 1
  17    8    9 2
  18    8   10 1
  19   10   11 1
  20   10   33 1
  21   10   34 1
  22   11   12 1
  23   12   14 ar
  24   12   15 ar
  25   14   18 ar
  26   14   35 1
  27   15   16 ar
  28   15   36 1
  29   16   17 ar
  30   16   37 1
  31   17   18 ar
  32   17   38 1
  33   18   39 1
  34   19   21 ar
  35   19   20 ar
  36   20   24 ar
  37   21   22 ar
  38   21   40 1
  39   22   23 ar
  40   22   41 1
  41   23   24 ar
  42   23   25 1
  43   24   42 1
  44   25   26 1
  45   25   27 1
  46   26   43 1
  47   26   44 1
  48   26   45 1
  49   27   46 1
  50   27   47 1
  51   27   48 1

#	End of record

