#	Name: ASD01870673
#	Creating user name:	WinNT
#	Creation time:	15. 06. 2019 19:39

#	Modifying user name:	WinNT
#	Modification time:	15. 06. 2019 19:39

#	Program:	/corina/corina34_cracker 3.40 0067  02.08.2006

@<TRIPOS>MOLECULE
ASD01870673
  34   37    0    0    0
SMALL
NO_CHARGES


@<TRIPOS>ATOM
   1 C1            -0.0175     1.4474     0.0142 C.2     
   2 C2             0.0020    -0.0040    -0.0008 C.2     
   3 C3             1.2282    -0.5353    -0.0715 C.2     
   4 S4             2.4387     0.6593    -0.1246 S.3     
   5 C5             1.2693     1.9672    -0.0495 C.2     
   6 C6            -1.2301    -0.8268     0.0575 C.ar    
   7 C7            -1.4320    -1.8508    -0.8665 C.ar    
   8 C8            -2.5807    -2.6133    -0.8074 C.ar    
   9 C9            -3.5309    -2.3630     0.1664 C.ar    
  10 C10           -3.3361    -1.3478     1.0857 C.ar    
  11 C11           -2.1884    -0.5829     1.0401 C.ar    
  12 N12           -1.0680     2.3087     0.0838 N.2     
  13 C13            1.4388     3.3735    -0.0446 C.2     
  14 N14            0.3426     4.1567     0.0219 N.am    
  15 C15           -0.8948     3.5944     0.0865 C.2     
  16 C16            0.4784     5.5507     0.0285 C.ar    
  17 C17            0.0298     6.2986    -1.0524 C.ar    
  18 C18            0.1644     7.6730    -1.0434 C.ar    
  19 C19            0.7453     8.3054     0.0405 C.ar    
  20 C20            1.1939     7.5636     1.1190 C.ar    
  21 C21            1.0566     6.1879     1.1179 C.ar    
  22 O22            2.5532     3.8661    -0.0990 O.2     
  23 Cl23           1.9231     8.3614     2.4774 Cl      
  24 H24            1.4261    -1.5968    -0.0923 H       
  25 H25           -0.6911    -2.0469    -1.6274 H       
  26 H26           -2.7384    -3.4067    -1.5229 H       
  27 H27           -4.4284    -2.9622     0.2089 H       
  28 H28           -4.0816    -1.1565     1.8433 H       
  29 H29           -2.0349     0.2061     1.7615 H       
  30 H30           -1.7597     4.2386     0.1432 H       
  31 H31           -0.4238     5.8056    -1.8996 H       
  32 H32           -0.1841     8.2545    -1.8841 H       
  33 H33            0.8494     9.3804     0.0450 H       
  34 H34            1.4027     5.6093     1.9616 H       
@<TRIPOS>BOND
   1    1    2 1
   2    1    5 2
   3    1   12 1
   4    2    3 2
   5    2    6 1
   6    3    4 1
   7    3   24 1
   8    4    5 1
   9    5   13 1
  10    6    7 ar
  11    6   11 ar
  12    7    8 ar
  13    7   25 1
  14    8    9 ar
  15    8   26 1
  16    9   10 ar
  17    9   27 1
  18   10   11 ar
  19   10   28 1
  20   11   29 1
  21   12   15 2
  22   13   14 am
  23   13   22 2
  24   14   15 1
  25   14   16 1
  26   15   30 1
  27   16   17 ar
  28   16   21 ar
  29   17   18 ar
  30   17   31 1
  31   18   19 ar
  32   18   32 1
  33   19   20 ar
  34   19   33 1
  35   20   21 ar
  36   20   23 1
  37   21   34 1

#	End of record

