#	Name: ASD07300647
#	Creating user name:	WinNT
#	Creation time:	15. 06. 2019 21:10

#	Modifying user name:	WinNT
#	Modification time:	15. 06. 2019 21:10

#	Program:	/corina/corina34_cracker 3.40 0067  02.08.2006

@<TRIPOS>MOLECULE
ASD07300647
  26   28    0    0    0
SMALL
NO_CHARGES


@<TRIPOS>ATOM
   1 C1            -0.0178     1.4583     0.0101 C.2     
   2 C2             0.0021    -0.0041     0.0020 C.2     
   3 N3             1.1836     2.1260     0.0022 N.pl3   
   4 N4             1.1685    -0.6258    -0.0125 N.2     
   5 C5             2.3136     0.0556    -0.0197 C.2     
   6 C6             2.3451     1.4042    -0.0124 C.2     
   7 N7            -0.9856     2.3546     0.0293 N.2     
   8 C8            -0.4497     3.5772     0.0278 C.2     
   9 C9             0.8999     3.4568     0.0120 C.2     
  10 C10           -2.4930    -0.1180     0.0262 C.ar    
  11 C11           -1.2624    -0.7747     0.0104 C.ar    
  12 C12           -1.2428    -2.1734     0.0023 C.ar    
  13 C13           -2.4521    -2.8467     0.0102 C.ar    
  14 C14           -3.6300    -2.1222     0.0258 C.ar    
  15 N15           -3.6177    -0.8029     0.0328 N.ar    
  16 C16           -1.2170     4.8741     0.0461 C.3     
  17 Br17           2.1537     4.8724     0.0082 Br      
  18 H18            3.2461    -0.4891    -0.0312 H       
  19 H19            3.2951     1.9179    -0.0187 H       
  20 H20           -2.5235     0.9615     0.0372 H       
  21 H21           -0.3079    -2.7141    -0.0103 H       
  22 H22           -2.4756    -3.9264     0.0039 H       
  23 H23           -4.5751    -2.6447     0.0321 H       
  24 H24           -1.3862     5.1815     1.0781 H       
  25 H25           -0.6441     5.6426    -0.4727 H       
  26 H26           -2.1758     4.7361    -0.4537 H       
@<TRIPOS>BOND
   1    1    2 1
   2    1    3 1
   3    1    7 2
   4    2    4 2
   5    2   11 1
   6    3    6 1
   7    3    9 1
   8    4    5 1
   9    5    6 2
  10    5   18 1
  11    6   19 1
  12    7    8 1
  13    8    9 2
  14    8   16 1
  15    9   17 1
  16   10   11 ar
  17   10   15 ar
  18   10   20 1
  19   11   12 ar
  20   12   13 ar
  21   12   21 1
  22   13   14 ar
  23   13   22 1
  24   14   15 ar
  25   14   23 1
  26   16   24 1
  27   16   25 1
  28   16   26 1

#	End of record

