#	Name: ASD03331515
#	Creating user name:	WinNT
#	Creation time:	15. 06. 2019 20:39

#	Modifying user name:	WinNT
#	Modification time:	15. 06. 2019 20:39

#	Program:	/corina/corina34_cracker 3.40 0067  02.08.2006

@<TRIPOS>MOLECULE
ASD03331515
  63   65    0    0    0
SMALL
NO_CHARGES


@<TRIPOS>ATOM
   1 C1             0.7720     1.7637     0.4079 C.ar    
   2 C2             0.6148     0.2929     0.3889 C.2     
   3 N3            -0.4668    -0.3982     0.8520 N.pl3   
   4 C4            -0.2278    -1.7193     0.6385 C.2     
   5 C5             1.0037    -1.8166     0.0655 C.2     
   6 N6             1.4899    -0.5647    -0.0812 N.2     
   7 C7             1.6820    -3.0638    -0.3293 C.2     
   8 N8             2.9069    -3.0165    -0.8896 N.am    
   9 C9             1.6970     2.3795    -0.4356 C.ar    
  10 O10            1.1365    -4.1359    -0.1496 O.2     
  11 C11            3.5812    -4.2564    -1.2822 C.3     
  12 C12            1.8397     3.7532    -0.4137 C.ar    
  13 C13            1.0648     4.5191     0.4458 C.ar    
  14 C14            0.1456     3.9105     1.2849 C.ar    
  15 C15           -0.0086     2.5400     1.2654 C.ar    
  16 C16           -1.6669     0.1608     1.4808 C.3     
  17 C17           -2.8459    -0.7860     1.2400 C.3     
  18 C18           -2.8953    -1.8410     2.3415 C.3     
  19 N19           -1.6824    -2.6611     2.3358 N.3     
  20 C20           -1.1704    -2.8469     0.9691 C.3     
  21 C21            3.1180    -4.6679    -2.6811 C.3     
  22 N22            5.9069    -5.0673    -1.0536 N.am    
  23 C23            5.0720    -4.0363    -1.2912 C.2     
  24 C24            7.3496    -4.8334    -0.9529 C.3     
  25 O25            5.5205    -2.9313    -1.5123 O.2     
  26 C26            3.3583    -3.5150    -3.6577 C.3     
  27 C27            3.9067    -5.8966    -3.1386 C.3     
  28 C28            1.6257    -5.0039    -2.6460 C.3     
  29 C29           -1.9189    -3.9551     2.9898 C.3     
  30 F30            1.2074     5.8624     0.4647 F       
  31 C31           -4.1498     0.0144     1.2434 C.3     
  32 F32            2.7348     4.3518    -1.2296 F       
  33 H33            3.3419    -2.1614    -1.0330 H       
  34 H34            2.3006     1.7833    -1.1040 H       
  35 H35            3.3346    -5.0449    -0.5712 H       
  36 H36           -0.4546     4.5108     1.9525 H       
  37 H37           -0.7257     2.0673     1.9202 H       
  38 H38           -1.4999     0.2696     2.5524 H       
  39 H39           -1.8869     1.1350     1.0442 H       
  40 H40           -2.7254    -1.2762     0.2739 H       
  41 H41           -2.9880    -1.3456     3.3080 H       
  42 H42           -3.7622    -2.4826     2.1842 H       
  43 H43           -2.0023    -2.8449     0.2648 H       
  44 H44           -0.6392    -3.7966     0.9049 H       
  45 H45            5.5525    -5.9642    -0.9492 H       
  46 H46            7.7149    -4.4089    -1.8880 H       
  47 H47            7.5490    -4.1395    -0.1364 H       
  48 H48            7.8581    -5.7779    -0.7595 H       
  49 H49            4.4214    -3.2757    -3.6828 H       
  50 H50            3.0283    -3.8082    -4.6543 H       
  51 H51            2.7964    -2.6396    -3.3318 H       
  52 H52            3.6936    -6.7335    -2.4735 H       
  53 H53            3.6149    -6.1576    -4.1559 H       
  54 H54            4.9734    -5.6741    -3.1123 H       
  55 H55            1.0638    -4.1285    -2.3200 H       
  56 H56            1.2957    -5.2971    -3.6426 H       
  57 H57            1.4545    -5.8253    -1.9502 H       
  58 H58           -2.7061    -4.4915     2.4600 H       
  59 H59           -1.0020    -4.5443     2.9716 H       
  60 H60           -2.2240    -3.7896     4.0230 H       
  61 H61           -4.1180     0.7642     0.4530 H       
  62 H62           -4.9898    -0.6588     1.0721 H       
  63 H63           -4.2706     0.5079     2.2078 H       
@<TRIPOS>BOND
   1    1    2 1
   2    1    9 ar
   3    1   15 ar
   4    2    3 1
   5    2    6 2
   6    3    4 1
   7    3   16 1
   8    4    5 2
   9    4   20 1
  10    5    6 1
  11    5    7 1
  12    7    8 am
  13    7   10 2
  14    8   11 1
  15    8   33 1
  16    9   12 ar
  17    9   34 1
  18   11   21 1
  19   11   23 1
  20   11   35 1
  21   12   13 ar
  22   12   32 1
  23   13   14 ar
  24   13   30 1
  25   14   15 ar
  26   14   36 1
  27   15   37 1
  28   16   17 1
  29   16   38 1
  30   16   39 1
  31   17   18 1
  32   17   31 1
  33   17   40 1
  34   18   19 1
  35   18   41 1
  36   18   42 1
  37   19   20 1
  38   19   29 1
  39   20   43 1
  40   20   44 1
  41   21   26 1
  42   21   27 1
  43   21   28 1
  44   22   23 am
  45   22   24 1
  46   22   45 1
  47   23   25 2
  48   24   46 1
  49   24   47 1
  50   24   48 1
  51   26   49 1
  52   26   50 1
  53   26   51 1
  54   27   52 1
  55   27   53 1
  56   27   54 1
  57   28   55 1
  58   28   56 1
  59   28   57 1
  60   29   58 1
  61   29   59 1
  62   29   60 1
  63   31   61 1
  64   31   62 1
  65   31   63 1

#	End of record

