#	Name: ASD04640012
#	Creating user name:	WinNT
#	Creation time:	15. 06. 2019 20:52

#	Modifying user name:	WinNT
#	Modification time:	15. 06. 2019 20:52

#	Program:	/corina/corina34_cracker 3.40 0067  02.08.2006

@<TRIPOS>MOLECULE
ASD04640012
  37   38    0    0    0
SMALL
NO_CHARGES


@<TRIPOS>ATOM
   1 C1            -0.0180     1.4730     0.0101 C.ar    
   2 C2             0.0021    -0.0041     0.0020 C.2     
   3 O3             1.0630    -0.5975    -0.0113 O.2     
   4 N4            -1.1558    -0.6938     0.0094 N.am    
   5 C5            -1.1360    -2.1586     0.0013 C.3     
   6 C6            -2.5713    -2.6882     0.0122 C.3     
   7 C7            -2.5506    -4.2180     0.0038 C.3     
   8 C8            -3.9860    -4.7476     0.0146 C.3     
   9 C9             1.1820     2.1884     0.0025 C.ar    
  10 C10            1.1622     3.5649     0.0096 C.ar    
  11 C11           -0.0556     4.2454     0.0244 C.ar    
  12 C12           -1.2544     3.5320     0.0320 C.ar    
  13 C13           -1.2369     2.1555     0.0196 C.ar    
  14 C14           -0.0757     5.7280     0.0326 C.ar    
  15 C15            1.1152     6.4527     0.0255 C.ar    
  16 C16           -1.2891     6.4220     0.0416 C.ar    
  17 C17           -1.2539     7.8059     0.0490 C.ar    
  18 C18           -0.0310     8.4515     0.0472 C.ar    
  19 N19            1.0983     7.7696     0.0328 N.ar    
  20 H20           -2.0023    -0.2203     0.0200 H       
  21 H21           -0.6258    -2.5101    -0.8955 H       
  22 H22           -0.6088    -2.5197     0.8844 H       
  23 H23           -3.0815    -2.3367     0.9090 H       
  24 H24           -3.0985    -2.3271    -0.8709 H       
  25 H25           -2.0404    -4.5695    -0.8930 H       
  26 H26           -2.0234    -4.5791     0.8868 H       
  27 H27           -4.5132    -4.3865    -0.8684 H       
  28 H28           -3.9712    -5.8375     0.0086 H       
  29 H29           -4.4962    -4.3961     0.9114 H       
  30 H30            2.1249     1.6618    -0.0086 H       
  31 H31            2.0897     4.1182     0.0041 H       
  32 H32           -2.1965     4.0598     0.0439 H       
  33 H33           -2.1651     1.6034     0.0255 H       
  34 H34            2.0600     5.9296     0.0144 H       
  35 H35           -2.2301     5.8920     0.0424 H       
  36 H36           -2.1716     8.3752     0.0557 H       
  37 H37            0.0000     9.5311     0.0530 H       
@<TRIPOS>BOND
   1    1    2 1
   2    1    9 ar
   3    1   13 ar
   4    2    3 2
   5    2    4 am
   6    4    5 1
   7    4   20 1
   8    5    6 1
   9    5   21 1
  10    5   22 1
  11    6    7 1
  12    6   23 1
  13    6   24 1
  14    7    8 1
  15    7   25 1
  16    7   26 1
  17    8   27 1
  18    8   28 1
  19    8   29 1
  20    9   10 ar
  21    9   30 1
  22   10   11 ar
  23   10   31 1
  24   11   12 ar
  25   11   14 1
  26   12   13 ar
  27   12   32 1
  28   13   33 1
  29   14   15 ar
  30   14   16 ar
  31   15   19 ar
  32   15   34 1
  33   16   17 ar
  34   16   35 1
  35   17   18 ar
  36   17   36 1
  37   18   19 ar
  38   18   37 1

#	End of record

