#	Name: ASD09116083
#	Creating user name:	WinNT
#	Creation time:	15. 06. 2019 21:20

#	Modifying user name:	WinNT
#	Modification time:	15. 06. 2019 21:20

#	Program:	/corina/corina34_cracker 3.40 0067  02.08.2006

@<TRIPOS>MOLECULE
ASD09116083
  64   69    0    0    0
SMALL
NO_CHARGES


@<TRIPOS>ATOM
   1 C1             5.8358    -1.0103     0.7602 C.ar    
   2 N2             4.8196    -1.9525     0.6183 N.pl3   
   3 N3             3.5395    -1.7362     0.0829 N.2     
   4 C4             2.9038    -2.8818     0.1346 C.2     
   5 N5             3.7085    -3.8067     0.6710 N.2     
   6 C6             4.8716    -3.2664     0.9650 C.2     
   7 N7             5.9504    -3.9161     1.5329 N.pl3   
   8 N8             1.5966    -3.1013    -0.2997 N.pl3   
   9 C9             5.6399     0.3165     0.3501 C.ar    
  10 N10            7.0029    -1.3522     1.2906 N.ar    
  11 C11            7.9704    -0.4620     1.4280 C.ar    
  12 N12            7.8368     0.7875     1.0555 N.ar    
  13 C13            6.6834     1.2336     0.5092 C.ar    
  14 C14            1.0663    -4.3942    -0.2943 C.ar    
  15 C15           -0.2952    -4.5862    -0.0923 C.ar    
  16 C16           -0.8250    -5.8638    -0.0897 C.ar    
  17 C17            0.0076    -6.9444    -0.2906 C.ar    
  18 C18            1.3632    -6.7545    -0.4855 C.ar    
  19 C19            1.9009    -5.4899    -0.4969 C.ar    
  20 C20           -0.5144    -8.3578    -0.3187 C.3     
  21 C21           -1.2207    -8.5751    -1.6539 C.3     
  22 C22           -0.2257    -8.2900    -2.8120 C.3     
  23 C23            0.9317    -9.2681    -2.5428 C.3     
  24 C24            2.2098    -8.5817    -2.0617 C.3     
  25 C25            2.2048    -7.9920    -0.6809 C.3     
  26 Cl26           9.4759    -0.9673     2.1295 Cl      
  27 C27            6.3448     2.5166     0.0513 C.2     
  28 C28            5.1227     2.6488    -0.4397 C.2     
  29 S29            4.2561     1.1234    -0.3729 S.3     
  30 C30            7.3115     3.6709     0.1152 C.3     
  31 N31            3.2997    -9.5644    -2.1269 N.3     
  32 C32            3.4795   -10.0637    -3.5025 C.3     
  33 C33            4.9440    -9.7859    -3.9020 C.3     
  34 C34            5.6622    -9.6615    -2.5325 C.3     
  35 C35            4.5752    -8.9721    -1.6706 C.3     
  36 H36            5.8884    -4.8590     1.7519 H       
  37 H37            6.7700    -3.4294     1.7125 H       
  38 H38            1.0556    -2.3565    -0.6055 H       
  39 H39           -0.9415    -3.7351     0.0635 H       
  40 H40           -1.8827    -6.0139     0.0688 H       
  41 H41            2.9600    -5.3482    -0.6538 H       
  42 H42            0.3154    -9.0582    -0.2232 H       
  43 H43           -1.2199    -8.5057     0.4990 H       
  44 H44           -1.5681    -9.6063    -1.7182 H       
  45 H45           -2.0713    -7.8979    -1.7300 H       
  46 H46           -0.6888    -8.4994    -3.7763 H       
  47 H47            0.1257    -7.2590    -2.7711 H       
  48 H48            0.6141    -9.9844    -1.7851 H       
  49 H49            1.1518    -9.8098    -3.4627 H       
  50 H50            2.4441    -7.7825    -2.7649 H       
  51 H51            3.2329    -7.7478    -0.4134 H       
  52 H52            1.8503    -8.7553     0.0118 H       
  53 H53            4.7148     3.5695    -0.8300 H       
  54 H54            7.8947     3.7077    -0.8050 H       
  55 H55            6.7579     4.6025     0.2319 H       
  56 H56            7.9813     3.5373     0.9647 H       
  57 H57            3.2827   -11.1352    -3.5368 H       
  58 H58            2.8047    -9.5387    -4.1787 H       
  59 H59            5.3512   -10.6179    -4.4765 H       
  60 H60            5.0203    -8.8547    -4.4633 H       
  61 H61            5.9129   -10.6439    -2.1323 H       
  62 H62            6.5512    -9.0360    -2.6133 H       
  63 H63            4.5780    -7.8962    -1.8455 H       
  64 H64            4.7365    -9.1861    -0.6141 H       
@<TRIPOS>BOND
   1    1    2 1
   2    1    9 ar
   3    1   10 ar
   4    2    3 1
   5    2    6 1
   6    3    4 2
   7    4    5 1
   8    4    8 1
   9    5    6 2
  10    6    7 1
  11    7   36 1
  12    7   37 1
  13    8   14 1
  14    8   38 1
  15    9   13 ar
  16    9   29 1
  17   10   11 ar
  18   11   12 ar
  19   11   26 1
  20   12   13 ar
  21   13   27 1
  22   14   15 ar
  23   14   19 ar
  24   15   16 ar
  25   15   39 1
  26   16   17 ar
  27   16   40 1
  28   17   18 ar
  29   17   20 1
  30   18   19 ar
  31   18   25 1
  32   19   41 1
  33   20   21 1
  34   20   42 1
  35   20   43 1
  36   21   22 1
  37   21   44 1
  38   21   45 1
  39   22   23 1
  40   22   46 1
  41   22   47 1
  42   23   24 1
  43   23   48 1
  44   23   49 1
  45   24   25 1
  46   24   31 1
  47   24   50 1
  48   25   51 1
  49   25   52 1
  50   27   28 2
  51   27   30 1
  52   28   29 1
  53   28   53 1
  54   30   54 1
  55   30   55 1
  56   30   56 1
  57   31   32 1
  58   31   35 1
  59   32   33 1
  60   32   57 1
  61   32   58 1
  62   33   34 1
  63   33   59 1
  64   33   60 1
  65   34   35 1
  66   34   61 1
  67   34   62 1
  68   35   63 1
  69   35   64 1

#	End of record

