#	Name: ASD03331035
#	Creating user name:	WinNT
#	Creation time:	15. 06. 2019 20:38

#	Modifying user name:	WinNT
#	Modification time:	15. 06. 2019 20:38

#	Program:	/corina/corina34_cracker 3.40 0067  02.08.2006

@<TRIPOS>MOLECULE
ASD03331035
  60   62    0    0    0
SMALL
NO_CHARGES


@<TRIPOS>ATOM
   1 N1             0.2596     1.1629     0.3640 N.pl3   
   2 C2             0.2093    -0.1956     0.3436 C.2     
   3 C3             1.3997    -1.1184     0.3680 C.3     
   4 N4             2.3260    -0.6827     1.4247 N.3     
   5 C5             3.2844     0.3010     0.9172 C.3     
   6 C6             2.6461     1.1841    -0.1512 C.3     
   7 C7             1.4798     1.9697     0.4545 C.3     
   8 C8            -1.0242     1.6203     0.2975 C.2     
   9 N9            -1.8348     0.5890     0.2561 N.2     
  10 C10           -1.1049    -0.5475     0.2858 C.2     
  11 C11           -1.6359    -1.9218     0.2603 C.2     
  12 O12           -0.8736    -2.8690     0.2917 O.2     
  13 N13           -2.9663    -2.1292     0.2021 N.am    
  14 C14            3.0182    -1.8312     2.0245 C.3     
  15 C15           -4.8697    -3.4985    -0.4933 C.3     
  16 C16           -3.4942    -3.4956     0.1767 C.3     
  17 C17           -3.6233    -4.0192     1.6085 C.3     
  18 C18           -4.4462    -3.0330     2.4399 C.3     
  19 C19           -4.3219    -5.3802     1.5928 C.3     
  20 C20           -2.2307    -4.1678     2.2246 C.3     
  21 O21           -5.7749    -2.7020     0.2737 O.3     
  22 C22           -7.0955    -2.6380    -0.2684 C.3     
  23 C23           -1.4340     3.0415     0.2765 C.ar    
  24 C24           -2.7005     3.3980    -0.1887 C.ar    
  25 C25           -3.0780     4.7262    -0.2056 C.ar    
  26 C26           -2.1995     5.7047     0.2392 C.ar    
  27 C27           -0.9418     5.3541     0.7010 C.ar    
  28 C28           -0.5578     4.0291     0.7271 C.ar    
  29 F29           -2.5724     7.0030     0.2211 F       
  30 F30           -4.3034     5.0737    -0.6560 F       
  31 H31            1.0674    -2.1364     0.5717 H       
  32 H32            1.9060    -1.0855    -0.5967 H       
  33 H33            3.6259     0.9267     1.7418 H       
  34 H34            4.1391    -0.2208     0.4868 H       
  35 H35            3.3902     1.8805    -0.5377 H       
  36 H36            2.2783     0.5595    -0.9653 H       
  37 H37            1.3427     2.9006    -0.0958 H       
  38 H38            1.6936     2.1912     1.5001 H       
  39 H39           -3.5743    -1.3738     0.1770 H       
  40 H40            3.5293    -2.3953     1.2443 H       
  41 H41            3.7472    -1.4762     2.7529 H       
  42 H42            2.2917    -2.4743     2.5212 H       
  43 H43           -4.7851    -3.0859    -1.4987 H       
  44 H44           -5.2439    -4.5207    -0.5504 H       
  45 H45           -2.8152    -4.1371    -0.3850 H       
  46 H46           -5.4877    -3.0691     2.1203 H       
  47 H47           -4.3800    -3.3027     3.4939 H       
  48 H48           -4.0572    -2.0248     2.2977 H       
  49 H49           -3.7356    -6.0828     1.0005 H       
  50 H50           -4.4139    -5.7532     2.6128 H       
  51 H51           -5.3140    -5.2744     1.1538 H       
  52 H52           -1.7330    -3.1981     2.2358 H       
  53 H53           -2.3227    -4.5408     3.2447 H       
  54 H54           -1.6444    -4.8703     1.6323 H       
  55 H55           -7.0570    -2.2076    -1.2691 H       
  56 H56           -7.5159    -3.6423    -0.3208 H       
  57 H57           -7.7210    -2.0152     0.3712 H       
  58 H58           -3.3838     2.6367    -0.5351 H       
  59 H59           -0.2618     6.1191     1.0457 H       
  60 H60            0.4217     3.7572     1.0918 H       
@<TRIPOS>BOND
   1    1    2 1
   2    1    7 1
   3    1    8 1
   4    2    3 1
   5    2   10 2
   6    3    4 1
   7    3   31 1
   8    3   32 1
   9    4    5 1
  10    4   14 1
  11    5    6 1
  12    5   33 1
  13    5   34 1
  14    6    7 1
  15    6   35 1
  16    6   36 1
  17    7   37 1
  18    7   38 1
  19    8    9 2
  20    8   23 1
  21    9   10 1
  22   10   11 1
  23   11   12 2
  24   11   13 am
  25   13   16 1
  26   13   39 1
  27   14   40 1
  28   14   41 1
  29   14   42 1
  30   15   21 1
  31   15   16 1
  32   15   43 1
  33   15   44 1
  34   16   17 1
  35   16   45 1
  36   17   18 1
  37   17   19 1
  38   17   20 1
  39   18   46 1
  40   18   47 1
  41   18   48 1
  42   19   49 1
  43   19   50 1
  44   19   51 1
  45   20   52 1
  46   20   53 1
  47   20   54 1
  48   21   22 1
  49   22   55 1
  50   22   56 1
  51   22   57 1
  52   23   24 ar
  53   23   28 ar
  54   24   25 ar
  55   24   58 1
  56   25   26 ar
  57   25   30 1
  58   26   27 ar
  59   26   29 1
  60   27   28 ar
  61   27   59 1
  62   28   60 1

#	End of record

