#	Name: ASD03498004
#	Creating user name:	WinNT
#	Creation time:	15. 06. 2019 20:42

#	Modifying user name:	WinNT
#	Modification time:	15. 06. 2019 20:42

#	Program:	/corina/corina34_cracker 3.40 0067  02.08.2006

@<TRIPOS>MOLECULE
ASD03498004
  32   34    0    0    0
SMALL
NO_CHARGES


@<TRIPOS>ATOM
   1 C1             0.0006     1.3813     0.3686 C.ar    
   2 C2             0.0027     0.0208     0.3162 C.ar    
   3 C3             1.2160    -0.6695     0.1512 C.ar    
   4 C4             2.4234     0.0635     0.0414 C.ar    
   5 C5             2.3839     1.4719     0.0990 C.ar    
   6 C6             1.1844     2.1062     0.2613 C.ar    
   7 C7             1.2549    -2.0732     0.0940 C.ar    
   8 C8             2.4483    -2.7078    -0.0657 C.ar    
   9 C9             3.6355    -1.9862    -0.1736 C.ar    
  10 C10            3.6356    -0.6258    -0.1220 C.ar    
  11 C11            3.4972     4.4024    -0.9220 C.ar    
  12 C12            3.4554     3.5367     0.1708 C.ar    
  13 O13            3.5301     2.1927    -0.0038 O.3     
  14 C14            3.4193     5.7618    -0.7077 C.ar    
  15 N15            3.3063     6.2507     0.5135 N.ar    
  16 C16            3.2630     5.4637     1.5788 C.ar    
  17 C17            3.3359     4.0837     1.4429 C.ar    
  18 N18            3.1437     6.0253     2.8450 N.pl3   
  19 N19           -1.2684    -0.7289     0.4330 N.pl3   
  20 O20           -2.2814    -0.2948    -0.0856 O.2     
  21 O21           -1.3013    -1.7799     1.0477 O.2     
  22 H22           -0.9350     1.9068     0.4910 H       
  23 H23            1.1540     3.1849     0.3051 H       
  24 H24            0.3426    -2.6454     0.1767 H       
  25 H25            2.4756    -3.7866    -0.1090 H       
  26 H26            4.5694    -2.5139    -0.2994 H       
  27 H27            4.5633    -0.0794    -0.2071 H       
  28 H28            3.5939     4.0122    -1.9243 H       
  29 H29            3.4516     6.4364    -1.5505 H       
  30 H30            3.3000     3.4448     2.3129 H       
  31 H31            3.0927     6.9887     2.9454 H       
  32 H32            3.1116     5.4536     3.6280 H       
@<TRIPOS>BOND
   1    1    2 ar
   2    1    6 ar
   3    1   22 1
   4    2    3 ar
   5    2   19 1
   6    3    4 ar
   7    3    7 ar
   8    4    5 ar
   9    4   10 ar
  10    5    6 ar
  11    5   13 1
  12    6   23 1
  13    7    8 ar
  14    7   24 1
  15    8    9 ar
  16    8   25 1
  17    9   10 ar
  18    9   26 1
  19   10   27 1
  20   11   12 ar
  21   11   14 ar
  22   11   28 1
  23   12   13 1
  24   12   17 ar
  25   14   15 ar
  26   14   29 1
  27   15   16 ar
  28   16   17 ar
  29   16   18 1
  30   17   30 1
  31   18   31 1
  32   18   32 1
  33   19   20 2
  34   19   21 2

#	End of record

