#	Name: ASD00230004
#	Creating user name:	WinNT
#	Creation time:	15. 06. 2019 18:33

#	Modifying user name:	WinNT
#	Modification time:	15. 06. 2019 18:33

#	Program:	/corina/corina34_cracker 3.40 0067  02.08.2006

@<TRIPOS>MOLECULE
ASD00230004
  90   96    0    0    0
SMALL
NO_CHARGES


@<TRIPOS>ATOM
   1 C1             0.0599     1.3756     0.2990 C.ar    
   2 C2             0.0802    -0.0097     0.2929 C.ar    
   3 C3             1.2737    -0.6923     0.3346 C.ar    
   4 C4             2.4675     0.0095     0.2843 C.ar    
   5 C5             2.4570     1.3947     0.1893 C.ar    
   6 C6             1.2427     2.0781     0.2431 C.ar    
   7 C7            -1.2455    -0.7304     0.1621 C.3     
   8 O8             3.5638     2.0924    -0.0449 O.3     
   9 C9             4.5017     2.5829     0.7648 C.ar    
  10 C10            5.7627     2.8431     0.2122 C.ar    
  11 C11            6.7794     3.2672     1.0376 C.ar    
  12 C12            6.5373     3.5340     2.3760 C.ar    
  13 C13            5.2757     3.3404     2.9122 C.ar    
  14 C14            4.2569     2.8542     2.0992 C.ar    
  15 C15            5.9566     2.6701    -1.2796 C.3     
  16 N16            7.2104     3.2877    -1.7128 N.4     
  17 C17            8.3308     2.8456    -0.8651 C.3     
  18 C18            8.1953     3.4100     0.5417 C.3     
  19 O19            3.0191     2.6446     2.6269 O.3     
  20 O20            5.0366     3.6236     4.2203 O.3     
  21 C21            6.1351     4.1195     4.9880 C.3     
  22 C22           -1.8779    -0.1591    -1.1129 C.3     
  23 C23            6.0618     1.1544    -1.5610 C.3     
  24 C24            4.7587     3.2333    -2.0293 C.3     
  25 C25            7.5158     2.8705    -3.0960 C.3     
  26 C26            7.1484     4.7558    -1.6676 C.3     
  27 C27            4.2630     2.3383    -3.1365 C.ar    
  28 C28            3.4213     1.2811    -2.8902 C.ar    
  29 C29            2.9887     0.4617    -3.9256 C.ar    
  30 C30            3.3935     0.7443    -5.2383 C.ar    
  31 C31            4.2174     1.8281    -5.4840 C.ar    
  32 C32            4.6412     2.6271    -4.4402 C.ar    
  33 O33            2.2275    -0.6090    -3.6899 O.3     
  34 N34           -3.2969    -0.4042    -1.2186 N.4     
  35 C35           -3.5843    -1.8002    -1.5687 C.3     
  36 C36           -3.1966    -1.9823    -3.0419 C.3     
  37 C37           -1.7576    -1.5619    -3.2127 C.ar    
  38 C38           -1.1502    -0.7108    -2.3132 C.ar    
  39 C39           -1.0397    -2.0386    -4.2967 C.ar    
  40 C40            0.2897    -1.7017    -4.4739 C.ar    
  41 C41            0.9254    -0.8569    -3.5538 C.ar    
  42 C42            0.1788    -0.3513    -2.5011 C.ar    
  43 O43            2.9848    -0.0468    -6.2653 O.3     
  44 O44            0.9760    -2.1898    -5.5413 O.3     
  45 C45            0.2610    -3.0432    -6.4372 C.3     
  46 H46           -1.6965     0.9298    -1.1127 H       
  47 C47           -4.0165    -0.0292    -0.0030 C.3     
  48 H48           -3.6550     0.1765    -1.9808 H       
  49 H49           -0.8807     1.9029     0.3530 H       
  50 H50            1.2808    -1.7683     0.4087 H       
  51 H51            3.4078    -0.5193     0.3201 H       
  52 H52            1.2294     3.1569     0.2409 H       
  53 H53           -1.0649    -1.8014     0.0440 H       
  54 H54           -1.8388    -0.5467     1.0491 H       
  55 H55            7.3412     3.9003     2.9997 H       
  56 H56            8.4133     1.7653    -0.8328 H       
  57 H57            9.2627     3.2322    -1.3067 H       
  58 H58            8.4985     4.4518     0.5745 H       
  59 H59            8.8507     2.8422     1.2123 H       
  60 H60            2.4328     3.4116     2.5712 H       
  61 H61            6.9388     3.3831     4.9898 H       
  62 H62            6.4954     5.0494     4.5481 H       
  63 H63            5.8091     4.3041     6.0115 H       
  64 H64            5.1463     0.6601    -1.2359 H       
  65 H65            6.2025     0.9922    -2.6297 H       
  66 H66            6.9107     0.7417    -1.0160 H       
  67 H67            3.9345     3.4274    -1.3359 H       
  68 H68            4.9736     4.2039    -2.4878 H       
  69 H69            6.7090     3.1863    -3.7573 H       
  70 H70            8.4500     3.3317    -3.4166 H       
  71 H71            7.6140     1.7857    -3.1350 H       
  72 H72            6.8192     5.0753    -0.6788 H       
  73 H73            8.1367     5.1676    -1.8721 H       
  74 H74            6.4435     5.1131    -2.4183 H       
  75 H75            3.0825     1.0769    -1.8874 H       
  76 H76            4.5291     2.0479    -6.4951 H       
  77 H77            5.2552     3.4909    -4.6436 H       
  78 H78           -2.9926    -2.4704    -0.9462 H       
  79 H79           -4.6472    -2.0029    -1.4429 H       
  80 H80           -3.3142    -3.0261    -3.3273 H       
  81 H81           -3.8350    -1.3585    -3.6680 H       
  82 H82           -1.5264    -2.6830    -5.0147 H       
  83 H83            0.6482     0.3507    -1.8289 H       
  84 H84            2.1541     0.2350    -6.6723 H       
  85 H85           -0.0994    -3.9180    -5.8958 H       
  86 H86           -0.5864    -2.5011    -6.8568 H       
  87 H87            0.9233    -3.3615    -7.2422 H       
  88 H88           -3.8711     1.0333     0.1921 H       
  89 H89           -5.0795    -0.2327    -0.1326 H       
  90 H90           -3.6356    -0.6086     0.8381 H       
@<TRIPOS>BOND
   1    1    2 ar
   2    1    6 ar
   3    1   49 1
   4    2    3 ar
   5    2    7 1
   6    3    4 ar
   7    3   50 1
   8    4    5 ar
   9    4   51 1
  10    5    6 ar
  11    5    8 1
  12    6   52 1
  13    7   22 1
  14    7   53 1
  15    7   54 1
  16    8    9 1
  17    9   10 ar
  18    9   14 ar
  19   10   11 ar
  20   10   15 1
  21   11   12 ar
  22   11   18 1
  23   12   13 ar
  24   12   55 1
  25   13   14 ar
  26   13   20 1
  27   14   19 1
  28   15   16 1
  29   15   23 1
  30   15   24 1
  31   16   17 1
  32   16   25 1
  33   16   26 1
  34   17   18 1
  35   17   56 1
  36   17   57 1
  37   18   58 1
  38   18   59 1
  39   19   60 1
  40   20   21 1
  41   21   61 1
  42   21   62 1
  43   21   63 1
  44   22   34 1
  45   22   46 1
  46   22   38 1
  47   23   64 1
  48   23   65 1
  49   23   66 1
  50   24   27 1
  51   24   67 1
  52   24   68 1
  53   25   69 1
  54   25   70 1
  55   25   71 1
  56   26   72 1
  57   26   73 1
  58   26   74 1
  59   27   28 ar
  60   27   32 ar
  61   28   29 ar
  62   28   75 1
  63   29   30 ar
  64   29   33 1
  65   30   31 ar
  66   30   43 1
  67   31   32 ar
  68   31   76 1
  69   32   77 1
  70   33   41 1
  71   34   35 1
  72   34   47 1
  73   34   48 1
  74   35   36 1
  75   35   78 1
  76   35   79 1
  77   36   37 1
  78   36   80 1
  79   36   81 1
  80   37   38 ar
  81   37   39 ar
  82   38   42 ar
  83   39   40 ar
  84   39   82 1
  85   40   41 ar
  86   40   44 1
  87   41   42 ar
  88   42   83 1
  89   43   84 1
  90   44   45 1
  91   45   85 1
  92   45   86 1
  93   45   87 1
  94   47   88 1
  95   47   89 1
  96   47   90 1

#	End of record

