#	Name: ASD00960241
#	Creating user name:	WinNT
#	Creation time:	15. 06. 2019 18:53

#	Modifying user name:	WinNT
#	Modification time:	15. 06. 2019 18:53

#	Program:	/corina/corina34_cracker 3.40 0067  02.08.2006

@<TRIPOS>MOLECULE
ASD00960241
  34   36    0    0    0
SMALL
NO_CHARGES


@<TRIPOS>ATOM
   1 C1            -0.0167     1.3833     0.0096 C.2     
   2 C2             0.0021    -0.0041     0.0020 C.2     
   3 N3             1.2798     1.8106    -0.0004 N.pl3   
   4 C4             2.0963     0.7220     0.0005 C.2     
   5 C5             1.3456    -0.3950    -0.0053 C.2     
   6 N6             1.7975     3.1146     0.0032 N.2     
   7 C7             3.0684     3.2770    -0.2341 C.2     
   8 N8             3.8939     2.2130    -0.5251 N.pl3   
   9 C9             3.6008     0.8748     0.0192 C.3     
  10 N10            4.1007     0.7714     1.3966 N.3     
  11 F11            3.5907     4.5224    -0.1940 F       
  12 C12           -1.2080     2.2327     0.0201 C.2     
  13 O13           -2.3148     1.7281     0.0233 O.2     
  14 O14           -1.0789     3.5756     0.0263 O.3     
  15 C15           -2.2842     4.3432     0.0364 C.3     
  16 C16           -1.9446     5.8114     0.0421 C.ar    
  17 C17           -1.7951     6.4909    -1.1524 C.ar    
  18 C18           -1.4836     7.8377    -1.1471 C.ar    
  19 C19           -1.3221     8.5051     0.0526 C.ar    
  20 C20           -1.4725     7.8258     1.2471 C.ar    
  21 C21           -1.7883     6.4800     1.2419 C.ar    
  22 H22           -0.8573    -0.6582     0.0021 H       
  23 H23            1.7138    -1.4102    -0.0141 H       
  24 H24            4.6709     2.3451    -1.0905 H       
  25 H25            4.0612     0.1089    -0.6048 H       
  26 H26            5.0984     0.9179     1.4312 H       
  27 H27            3.6193     1.4161     2.0054 H       
  28 H28           -2.8712     4.1095    -0.8517 H       
  29 H29           -2.8620     4.1004     0.9282 H       
  30 H30           -1.9213     5.9695    -2.0897 H       
  31 H31           -1.3661     8.3684    -2.0804 H       
  32 H32           -1.0780     9.5572     0.0567 H       
  33 H33           -1.3460     8.3472     2.1844 H       
  34 H34           -1.9095     5.9502     2.1751 H       
@<TRIPOS>BOND
   1    1    2 2
   2    1    3 1
   3    1   12 1
   4    2    5 1
   5    2   22 1
   6    3    4 1
   7    3    6 1
   8    4    5 2
   9    4    9 1
  10    5   23 1
  11    6    7 2
  12    7    8 1
  13    7   11 1
  14    8    9 1
  15    8   24 1
  16    9   10 1
  17    9   25 1
  18   10   26 1
  19   10   27 1
  20   12   13 2
  21   12   14 1
  22   14   15 1
  23   15   16 1
  24   15   28 1
  25   15   29 1
  26   16   17 ar
  27   16   21 ar
  28   17   18 ar
  29   17   30 1
  30   18   19 ar
  31   18   31 1
  32   19   20 ar
  33   19   32 1
  34   20   21 ar
  35   20   33 1
  36   21   34 1

#	End of record

