#	Name: ASD01814825
#	Creating user name:	WinNT
#	Creation time:	15. 06. 2019 19:33

#	Modifying user name:	WinNT
#	Modification time:	15. 06. 2019 19:33

#	Program:	/corina/corina34_cracker 3.40 0067  02.08.2006

@<TRIPOS>MOLECULE
ASD01814825
  50   53    0    0    0
SMALL
NO_CHARGES


@<TRIPOS>ATOM
   1 C1            -0.0169     1.3972     0.0097 C.2     
   2 C2             0.0021    -0.0041     0.0020 C.2     
   3 C3             1.1986    -0.6593    -0.0129 C.2     
   4 C4             2.3918     0.0821    -0.0204 C.2     
   5 N5             2.3437     1.4497    -0.0122 N.am    
   6 C6             1.1421     2.0937     0.0024 C.2     
   7 C7             3.6227    -0.5889    -0.0356 C.2     
   8 C8             4.7877     0.1218    -0.0425 C.2     
   9 C9             4.7345     1.5280    -0.0346 C.2     
  10 C10            3.4812     2.1736    -0.0189 C.2     
  11 O11            3.4258     3.3917    -0.0123 O.2     
  12 C12            5.9703     2.3140    -0.0413 C.2     
  13 O13            5.9124     3.6618    -0.0337 O.3     
  14 O14            7.0487     1.7516    -0.0537 O.2     
  15 C15            3.6593    -2.0954    -0.0439 C.3     
  16 N16            3.7787    -2.5747    -1.4274 N.3     
  17 C17            5.0724    -2.1905    -2.0078 C.3     
  18 C18            5.2348    -2.8207    -3.3621 C.2     
  19 N19            4.4905    -3.8523    -3.7740 N.am    
  20 C20            3.4285    -4.4391    -2.9617 C.3     
  21 C21            3.6048    -4.0346    -1.4967 C.3     
  22 C22            4.7518    -4.4188    -5.0995 C.3     
  23 O23            6.0761    -2.3747    -4.1133 O.2     
  24 H24            5.1171    -1.1058    -2.1058 H       
  25 C25            5.7778    -5.5165    -4.9833 C.ar    
  26 C26            5.3730    -6.8195    -4.7606 C.ar    
  27 C27            7.1227    -5.2206    -5.1050 C.ar    
  28 C28            8.0644    -6.2265    -4.9995 C.ar    
  29 C29            7.6605    -7.5311    -4.7713 C.ar    
  30 C30            6.3130    -7.8270    -4.6543 C.ar    
  31 F31            8.5802    -8.5153    -4.6680 F       
  32 H32           -0.9605     1.9226     0.0170 H       
  33 H33           -0.9233    -0.5609     0.0082 H       
  34 H34            1.2282    -1.7389    -0.0187 H       
  35 H35            1.1156     3.1733     0.0087 H       
  36 H36            5.7393    -0.3889    -0.0536 H       
  37 H37            6.7544     4.1373    -0.0385 H       
  38 H38            4.5153    -2.4412     0.5356 H       
  39 H39            2.7412    -2.4836     0.3971 H       
  40 H40            5.8767    -2.5266    -1.3535 H       
  41 H41            2.4618    -4.0859    -3.3205 H       
  42 H42            3.4682    -5.5252    -3.0443 H       
  43 H43            4.4852    -4.5276    -1.0845 H       
  44 H44            2.7210    -4.3248    -0.9286 H       
  45 H45            3.8278    -4.8271    -5.5088 H       
  46 H46            5.1283    -3.6382    -5.7605 H       
  47 H47            4.3219    -7.0501    -4.6694 H       
  48 H48            7.4375    -4.2030    -5.2831 H       
  49 H49            9.1150    -5.9952    -5.0954 H       
  50 H50            5.9968    -8.8442    -4.4759 H       
@<TRIPOS>BOND
   1    1    2 1
   2    1    6 2
   3    1   32 1
   4    2    3 2
   5    2   33 1
   6    3    4 1
   7    3   34 1
   8    4    5 1
   9    4    7 2
  10    5    6 1
  11    5   10 am
  12    6   35 1
  13    7   15 1
  14    7    8 1
  15    8    9 2
  16    8   36 1
  17    9   10 1
  18    9   12 1
  19   10   11 2
  20   12   13 1
  21   12   14 2
  22   13   37 1
  23   15   16 1
  24   15   38 1
  25   15   39 1
  26   16   17 1
  27   16   21 1
  28   17   18 1
  29   17   24 1
  30   17   40 1
  31   18   19 am
  32   18   23 2
  33   19   20 1
  34   19   22 1
  35   20   21 1
  36   20   41 1
  37   20   42 1
  38   21   43 1
  39   21   44 1
  40   22   25 1
  41   22   45 1
  42   22   46 1
  43   25   26 ar
  44   25   27 ar
  45   26   30 ar
  46   26   47 1
  47   27   28 ar
  48   27   48 1
  49   28   29 ar
  50   28   49 1
  51   29   30 ar
  52   29   31 1
  53   30   50 1

#	End of record

