#	Name: ASD01814782
#	Creating user name:	WinNT
#	Creation time:	15. 06. 2019 19:33

#	Modifying user name:	WinNT
#	Modification time:	15. 06. 2019 19:33

#	Program:	/corina/corina34_cracker 3.40 0067  02.08.2006

@<TRIPOS>MOLECULE
ASD01814782
  52   55    0    0    0
SMALL
NO_CHARGES


@<TRIPOS>ATOM
   1 C1             0.1528     0.6504     0.1655 C.2     
   2 C2             0.3513    -0.7188     0.3975 C.2     
   3 C3             1.6200    -1.2064     0.4955 C.2     
   4 C4             2.7102    -0.3275     0.3622 C.2     
   5 N5             2.4874     1.0059     0.1363 N.am    
   6 C6             1.2108     1.4806     0.0399 C.2     
   7 C7             4.0138    -0.8225     0.4620 C.2     
   8 C8             5.0854     0.0366     0.3318 C.2     
   9 C9             4.8450     1.3967     0.1006 C.2     
  10 C10            3.5219     1.8601     0.0062 C.2     
  11 O11            3.3077     3.0452    -0.1957 O.2     
  12 C12            5.9738     2.3370    -0.0425 C.2     
  13 O13            6.0855     3.3974     0.7994 O.3     
  14 C14            6.8846     2.1456    -0.9991 C.2     
  15 C15            4.2478    -2.2902     0.7117 C.3     
  16 N16            4.4603    -2.9770    -0.5694 N.3     
  17 C17            4.9238    -4.3542    -0.3576 C.3     
  18 C18            4.9946    -5.0824    -1.7017 C.3     
  19 C19            5.9574    -4.3372    -2.6303 C.3     
  20 C20            5.4788    -2.8922    -2.7956 C.3     
  21 C21            5.3939    -2.2275    -1.4198 C.3     
  22 O22            7.2690    -4.3439    -2.0631 O.3     
  23 C23            5.9857    -5.0154    -3.9757 C.ar    
  24 C24            7.1328    -4.9750    -4.7462 C.ar    
  25 C25            7.1587    -5.5971    -5.9804 C.ar    
  26 C26            6.0377    -6.2600    -6.4439 C.ar    
  27 C27            4.8910    -6.3012    -5.6731 C.ar    
  28 C28            4.8665    -5.6828    -4.4370 C.ar    
  29 H29           -0.8504     1.0417     0.0824 H       
  30 H30           -0.4953    -1.3818     0.4981 H       
  31 H31            1.7871    -2.2584     0.6744 H       
  32 H32            1.0450     2.5328    -0.1383 H       
  33 H33            6.0967    -0.3350     0.4074 H       
  34 H34            6.8559     3.9561     0.6282 H       
  35 H35            6.7521     1.3524    -1.7200 H       
  36 H36            7.7542     2.7839    -1.0522 H       
  37 H37            5.1283    -2.4157     1.3417 H       
  38 H38            3.3787    -2.7166     1.2127 H       
  39 H39            5.9132    -4.3382     0.0994 H       
  40 H40            4.2281    -4.8743     0.3010 H       
  41 H41            5.3535    -6.0998    -1.5460 H       
  42 H42            4.0028    -5.1109    -2.1529 H       
  43 H43            6.1836    -2.3447    -3.4214 H       
  44 H44            4.4946    -2.8862    -3.2640 H       
  45 H45            5.0397    -1.2028    -1.5327 H       
  46 H46            6.3811    -2.2215    -0.9578 H       
  47 H47            7.9319    -3.8881    -2.5997 H       
  48 H48            8.0085    -4.4571    -4.3840 H       
  49 H49            8.0546    -5.5649    -6.5826 H       
  50 H50            6.0578    -6.7454    -7.4085 H       
  51 H51            4.0151    -6.8188    -6.0354 H       
  52 H52            3.9717    -5.7181    -3.8332 H       
@<TRIPOS>BOND
   1    1    2 1
   2    1    6 2
   3    1   29 1
   4    2    3 2
   5    2   30 1
   6    3    4 1
   7    3   31 1
   8    4    5 1
   9    4    7 2
  10    5    6 1
  11    5   10 am
  12    6   32 1
  13    7   15 1
  14    7    8 1
  15    8    9 2
  16    8   33 1
  17    9   10 1
  18    9   12 1
  19   10   11 2
  20   12   13 1
  21   12   14 2
  22   13   34 1
  23   14   35 1
  24   14   36 1
  25   15   16 1
  26   15   37 1
  27   15   38 1
  28   16   17 1
  29   16   21 1
  30   17   18 1
  31   17   39 1
  32   17   40 1
  33   18   19 1
  34   18   41 1
  35   18   42 1
  36   19   20 1
  37   19   22 1
  38   19   23 1
  39   20   21 1
  40   20   43 1
  41   20   44 1
  42   21   45 1
  43   21   46 1
  44   22   47 1
  45   23   24 ar
  46   23   28 ar
  47   24   25 ar
  48   24   48 1
  49   25   26 ar
  50   25   49 1
  51   26   27 ar
  52   26   50 1
  53   27   28 ar
  54   27   51 1
  55   28   52 1

#	End of record

