#	Name: ASD03430709
#	Creating user name:	WinNT
#	Creation time:	15. 06. 2019 20:41

#	Modifying user name:	WinNT
#	Modification time:	15. 06. 2019 20:41

#	Program:	/corina/corina34_cracker 3.40 0067  02.08.2006

@<TRIPOS>MOLECULE
ASD03430709
  47   52    0    0    0
SMALL
NO_CHARGES


@<TRIPOS>ATOM
   1 C1             0.0280     1.3683     0.0196 C.ar    
   2 C2             0.0335    -0.0165     0.0124 C.ar    
   3 C3             1.2285    -0.7055     0.0142 C.ar    
   4 C4             2.4407    -0.0222     0.0346 C.ar    
   5 C5             2.4322     1.3694     0.0366 C.ar    
   6 C6             1.2355     2.0629     0.0288 C.ar    
   7 O7             3.4948    -0.8871     0.0632 O.3     
   8 C8             1.5634    -2.1726    -0.0171 C.3     
   9 C9             3.0554    -2.1861    -0.3779 C.3     
  10 C10            0.4060    -3.8800     1.0154 C.ar    
  11 C11            1.2991    -2.8484     1.2955 C.ar    
  12 C12            0.7399    -2.9229    -1.0242 C.2     
  13 N13            0.0994    -3.8969    -0.3473 N.am    
  14 O14            0.6658    -2.6970    -2.2135 O.2     
  15 C15            1.7448    -2.6377     2.5808 C.ar    
  16 C16            1.3065    -3.4536     3.6091 C.ar    
  17 C17            0.4203    -4.4808     3.3425 C.ar    
  18 C18           -0.0293    -4.6962     2.0561 C.ar    
  19 C19           -0.8120    -4.8610    -0.9686 C.3     
  20 O20           -0.9962     2.2713     0.0140 O.3     
  21 C21           -0.4113     3.5184     0.4335 C.3     
  22 O22            0.9667     3.4019     0.0282 O.3     
  23 F23           -1.0240     4.5931    -0.2200 F       
  24 F24           -0.5090     3.6650     1.8213 F       
  25 C25           -2.2319    -4.3793    -0.8175 C.ar    
  26 C26           -2.9648    -4.0504    -1.9419 C.ar    
  27 C27           -4.2705    -3.6082    -1.7920 C.ar    
  28 C28           -4.7919    -3.5131    -0.5110 C.ar    
  29 C29           -3.9987    -3.8599     0.5666 C.ar    
  30 N30           -2.7625    -4.2817     0.3859 N.ar    
  31 C31           -2.3526    -4.1703    -3.3137 C.3     
  32 F32           -3.3228    -3.8943    -4.2831 F       
  33 F33           -1.2989    -3.2581    -3.4355 F       
  34 F34           -1.8677    -5.4698    -3.4960 F       
  35 H35           -0.9005    -0.5586     0.0058 H       
  36 H36            3.3663     1.9114     0.0446 H       
  37 H37            3.1925    -2.2964    -1.4536 H       
  38 H38            3.5773    -2.9756     0.1629 H       
  39 H39            2.4369    -1.8346     2.7870 H       
  40 H40            1.6561    -3.2885     4.6176 H       
  41 H41            0.0786    -5.1177     4.1450 H       
  42 H42           -0.7216    -5.5006     1.8556 H       
  43 H43           -0.5719    -4.9578    -2.0274 H       
  44 H44           -0.7032    -5.8299    -0.4813 H       
  45 H45           -4.8669    -3.3438    -2.6527 H       
  46 H46           -5.8050    -3.1722    -0.3569 H       
  47 H47           -4.3973    -3.7883     1.5677 H       
@<TRIPOS>BOND
   1    1    2 ar
   2    1    6 ar
   3    1   20 1
   4    2    3 ar
   5    2   35 1
   6    3    4 ar
   7    3    8 1
   8    4    5 ar
   9    4    7 1
  10    5    6 ar
  11    5   36 1
  12    6   22 1
  13    7    9 1
  14    8    9 1
  15    8   11 1
  16    8   12 1
  17    9   37 1
  18    9   38 1
  19   10   11 ar
  20   10   13 1
  21   10   18 ar
  22   11   15 ar
  23   12   13 am
  24   12   14 2
  25   13   19 1
  26   15   16 ar
  27   15   39 1
  28   16   17 ar
  29   16   40 1
  30   17   18 ar
  31   17   41 1
  32   18   42 1
  33   19   25 1
  34   19   43 1
  35   19   44 1
  36   20   21 1
  37   21   22 1
  38   21   23 1
  39   21   24 1
  40   25   26 ar
  41   25   30 ar
  42   26   27 ar
  43   26   31 1
  44   27   28 ar
  45   27   45 1
  46   28   29 ar
  47   28   46 1
  48   29   30 ar
  49   29   47 1
  50   31   32 1
  51   31   33 1
  52   31   34 1

#	End of record

