#	Name: ASD01880324
#	Creating user name:	WinNT
#	Creation time:	15. 06. 2019 19:40

#	Modifying user name:	WinNT
#	Modification time:	15. 06. 2019 19:40

#	Program:	/corina/corina34_cracker 3.40 0067  02.08.2006

@<TRIPOS>MOLECULE
ASD01880324
  39   41    0    0    0
SMALL
NO_CHARGES


@<TRIPOS>ATOM
   1 C1            -0.0189     1.3174    -0.0137 C.ar    
   2 N2             0.0002    -0.0031    -0.0090 N.ar    
   3 C3            -1.1232    -0.7056    -0.0037 C.ar    
   4 C4            -2.3634    -0.0168    -0.0032 C.ar    
   5 C5            -2.3267     1.3804    -0.0083 C.ar    
   6 N6            -1.1401     2.0007    -0.0080 N.ar    
   7 C7            -3.7222    -0.5247     0.0015 C.2     
   8 C8            -4.6598     0.4030     0.0001 C.2     
   9 S9            -3.9661     2.0135    -0.0071 S.3     
  10 C10            1.2897     2.0648    -0.0196 C.3     
  11 C11           -6.1391     0.1155     0.0038 C.3     
  12 N12           -1.0874    -2.0890     0.0007 N.pl3   
  13 C13            0.1364    -2.7579    -0.1206 C.ar    
  14 C14            1.1451    -2.2220    -0.9098 C.ar    
  15 C15            2.3539    -2.8815    -1.0310 C.ar    
  16 C16            2.5615    -4.0781    -0.3652 C.ar    
  17 C17            1.5524    -4.6179     0.4271 C.ar    
  18 C18            0.3434    -3.9547     0.5529 C.ar    
  19 O19            3.7519    -4.7263    -0.4860 O.3     
  20 C20            4.7420    -4.1153    -1.3156 C.3     
  21 O21            1.7555    -5.7927     1.0812 O.3     
  22 C22            0.6762    -6.2876     1.8763 C.3     
  23 H23           -3.9486    -1.5806     0.0054 H       
  24 H24            1.6026     2.2413    -1.0487 H       
  25 H25            1.1650     3.0197     0.4911 H       
  26 H26            2.0478     1.4741     0.4945 H       
  27 H27           -6.4939     0.0495     1.0323 H       
  28 H28           -6.6665     0.9180    -0.5117 H       
  29 H29           -6.3269    -0.8292    -0.5066 H       
  30 H30           -1.9102    -2.5952     0.0880 H       
  31 H31            0.9851    -1.2890    -1.4297 H       
  32 H32            3.1372    -2.4634    -1.6459 H       
  33 H33           -0.4406    -4.3717     1.1675 H       
  34 H34            4.3566    -4.0191    -2.3306 H       
  35 H35            4.9849    -3.1275    -0.9240 H       
  36 H36            5.6399    -4.7332    -1.3249 H       
  37 H37            0.4317    -5.5600     2.6503 H       
  38 H38           -0.1959    -6.4517     1.2434 H       
  39 H39            0.9695    -7.2285     2.3419 H       
@<TRIPOS>BOND
   1    1    2 ar
   2    1   10 1
   3    1    6 ar
   4    2    3 ar
   5    3    4 ar
   6    3   12 1
   7    4    5 ar
   8    4    7 1
   9    5    6 ar
  10    5    9 1
  11    7    8 2
  12    7   23 1
  13    8    9 1
  14    8   11 1
  15   10   24 1
  16   10   25 1
  17   10   26 1
  18   11   27 1
  19   11   28 1
  20   11   29 1
  21   12   13 1
  22   12   30 1
  23   13   14 ar
  24   13   18 ar
  25   14   15 ar
  26   14   31 1
  27   15   16 ar
  28   15   32 1
  29   16   17 ar
  30   16   19 1
  31   17   18 ar
  32   17   21 1
  33   18   33 1
  34   19   20 1
  35   20   34 1
  36   20   35 1
  37   20   36 1
  38   21   22 1
  39   22   37 1
  40   22   38 1
  41   22   39 1

#	End of record

