#	Name: ASD03730271
#	Creating user name:	WinNT
#	Creation time:	15. 06. 2019 20:44

#	Modifying user name:	WinNT
#	Modification time:	15. 06. 2019 20:44

#	Program:	/corina/corina34_cracker 3.40 0067  02.08.2006

@<TRIPOS>MOLECULE
ASD03730271
  68   74    0    0    0
SMALL
NO_CHARGES


@<TRIPOS>ATOM
   1 O1             1.0194     1.6300    -1.4875 O.3     
   2 C2             1.0262     0.1915    -1.5492 C.3     
   3 O3             2.4021    -0.1329    -1.8226 O.3     
   4 C4             3.1306     0.8994    -1.3044 C.ar    
   5 C5             2.2806     1.9842    -1.1017 C.ar    
   6 C6             4.4716     1.0018    -0.9811 C.ar    
   7 C7             4.9824     2.1861    -0.4584 C.ar    
   8 C8             4.1266     3.2678    -0.2738 C.ar    
   9 C9             2.7872     3.1657    -0.5869 C.ar    
  10 O10            6.2516     2.4868    -0.0598 O.3     
  11 C11            4.9685     4.3943     0.2628 C.3     
  12 C12            6.4038     3.9181    -0.0006 C.3     
  13 N13            4.3150     6.5664     0.5404 N.am    
  14 C14            4.6786     5.6979    -0.4242 C.2     
  15 C15            4.7220     4.6497     1.7197 C.ar    
  16 C16            4.8116     3.8635     2.8604 C.ar    
  17 C17            4.5071     4.4119     4.1062 C.ar    
  18 C18            4.1182     5.7338     4.1952 C.ar    
  19 C19            4.0290     6.5147     3.0608 C.ar    
  20 C20            4.3310     5.9810     1.8091 C.ar    
  21 O21            4.7562     5.9246    -1.6132 O.2     
  22 C22            5.2306     2.4445     2.7547 C.ar    
  23 C23            6.5891     2.1131     2.7310 C.ar    
  24 C24            6.9714     0.7848     2.6325 C.ar    
  25 C25            6.0125    -0.2079     2.5581 C.ar    
  26 C26            4.6679     0.1171     2.5809 C.ar    
  27 C27            4.2730     1.4359     2.6845 C.ar    
  28 O28            7.5304     3.0896     2.8038 O.3     
  29 C29            7.8696     3.5583     4.0332 C.ar    
  30 C30            7.1773     3.1284     5.1563 C.ar    
  31 C31            7.5245     3.6061     6.4051 C.ar    
  32 C32            8.5609     4.5118     6.5365 C.ar    
  33 C33            9.2525     4.9418     5.4191 C.ar    
  34 C34            8.9127     4.4633     4.1686 C.ar    
  35 C35            3.9466     7.9617     0.2881 C.3     
  36 C36            2.4403     8.0538     0.0361 C.3     
  37 C37            2.0555     9.5110    -0.2274 C.3     
  38 C38            0.5492     9.6032    -0.4794 C.3     
  39 C39            0.1644    11.0604    -0.7429 C.3     
  40 H40            0.7147    -0.2342    -0.5953 H       
  41 H41            0.3824    -0.1603    -2.3553 H       
  42 H42            5.1266     0.1570    -1.1352 H       
  43 H43            2.1317     4.0096    -0.4301 H       
  44 H44            7.0630     4.2037     0.8191 H       
  45 H45            6.7729     4.3077    -0.9494 H       
  46 H46            4.5747     3.8052     4.9971 H       
  47 H47            3.8820     6.1595     5.1592 H       
  48 H48            3.7233     7.5472     3.1436 H       
  49 H49            8.0195     0.5250     2.6136 H       
  50 H50            6.3143    -1.2420     2.4815 H       
  51 H51            3.9245    -0.6641     2.5220 H       
  52 H52            3.2225     1.6854     2.7068 H       
  53 H53            6.3674     2.4212     5.0541 H       
  54 H54            6.9857     3.2720     7.2794 H       
  55 H55            8.8306     4.8843     7.5137 H       
  56 H56           10.0616     5.6494     5.5245 H       
  57 H57            9.4561     4.7961     3.2965 H       
  58 H58            4.2077     8.5688     1.1549 H       
  59 H59            4.4844     8.3270    -0.5867 H       
  60 H60            2.1791     7.4467    -0.8307 H       
  61 H61            1.9025     7.6885     0.9110 H       
  62 H62            2.3167    10.1182     0.6394 H       
  63 H63            2.5933     9.8763    -1.1023 H       
  64 H64            0.2881     8.9960    -1.3462 H       
  65 H65            0.0114     9.2378     0.3954 H       
  66 H66           -0.9087    11.1260    -0.9225 H       
  67 H67            0.4256    11.6675     0.1238 H       
  68 H68            0.7022    11.4257    -1.6178 H       
@<TRIPOS>BOND
   1    1    2 1
   2    1    5 1
   3    2    3 1
   4    2   40 1
   5    2   41 1
   6    3    4 1
   7    4    5 ar
   8    4    6 ar
   9    5    9 ar
  10    6    7 ar
  11    6   42 1
  12    7    8 ar
  13    7   10 1
  14    8    9 ar
  15    8   11 1
  16    9   43 1
  17   10   12 1
  18   11   12 1
  19   11   14 1
  20   11   15 1
  21   12   44 1
  22   12   45 1
  23   13   14 am
  24   13   20 1
  25   13   35 1
  26   14   21 2
  27   15   16 ar
  28   15   20 ar
  29   16   17 ar
  30   16   22 1
  31   17   18 ar
  32   17   46 1
  33   18   19 ar
  34   18   47 1
  35   19   20 ar
  36   19   48 1
  37   22   23 ar
  38   22   27 ar
  39   23   24 ar
  40   23   28 1
  41   24   25 ar
  42   24   49 1
  43   25   26 ar
  44   25   50 1
  45   26   27 ar
  46   26   51 1
  47   27   52 1
  48   28   29 1
  49   29   30 ar
  50   29   34 ar
  51   30   31 ar
  52   30   53 1
  53   31   32 ar
  54   31   54 1
  55   32   33 ar
  56   32   55 1
  57   33   34 ar
  58   33   56 1
  59   34   57 1
  60   35   36 1
  61   35   58 1
  62   35   59 1
  63   36   37 1
  64   36   60 1
  65   36   61 1
  66   37   38 1
  67   37   62 1
  68   37   63 1
  69   38   39 1
  70   38   64 1
  71   38   65 1
  72   39   66 1
  73   39   67 1
  74   39   68 1

#	End of record

