#	Name: ASD05143268
#	Creating user name:	WinNT
#	Creation time:	15. 06. 2019 20:57

#	Modifying user name:	WinNT
#	Modification time:	15. 06. 2019 20:57

#	Program:	/corina/corina34_cracker 3.40 0067  02.08.2006

@<TRIPOS>MOLECULE
ASD05143268
  41   43    0    0    0
SMALL
NO_CHARGES


@<TRIPOS>ATOM
   1 C1            -0.2456     1.4568     0.0974 C.2     
   2 N2            -0.0151     0.2023    -0.2356 N.2     
   3 S3            -1.5403    -0.5439    -0.3020 S.3     
   4 C4            -2.4136     0.8782     0.1240 C.2     
   5 N5            -1.5011     1.8102     0.2908 N.2     
   6 N6            -3.7825     1.0105     0.2656 N.pl3   
   7 C7            -4.3231     2.2055     0.7505 C.ar    
   8 C8            -5.6214     2.5683     0.4155 C.ar    
   9 C9            -6.1528     3.7489     0.8961 C.ar    
  10 C10           -5.3932     4.5701     1.7108 C.ar    
  11 C11           -4.0995     4.2111     2.0461 C.ar    
  12 C12           -3.5647     3.0291     1.5726 C.ar    
  13 C13            1.2032    -0.3798    -0.4788 C.ar    
  14 C14            1.6067    -1.4947     0.2579 C.ar    
  15 C15            2.0418     0.1370    -1.4678 C.ar    
  16 C16            3.2656    -0.4525    -1.7077 C.ar    
  17 C17            3.6626    -1.5551    -0.9700 C.ar    
  18 C18            2.8328    -2.0756     0.0088 C.ar    
  19 C19            0.8616     2.4287     0.2541 C.ar    
  20 C20            0.6637     3.7723    -0.0627 C.ar    
  21 C21            2.1040     2.0046     0.7244 C.ar    
  22 C22            3.1313     2.9145     0.8686 C.ar    
  23 C23            2.9305     4.2452     0.5477 C.ar    
  24 C24            1.6986     4.6729     0.0857 C.ar    
  25 Cl25           5.2040    -2.2919    -1.2781 Cl      
  26 Cl26          -6.0643     6.0537     2.3128 Cl      
  27 H27           -4.3680     0.2743     0.0286 H       
  28 H28           -6.2145     1.9280    -0.2205 H       
  29 H29           -7.1621     4.0316     0.6357 H       
  30 H30           -3.5087     4.8540     2.6818 H       
  31 H31           -2.5551     2.7492     1.8349 H       
  32 H32            0.9604    -1.9015     1.0216 H       
  33 H33            1.7330     0.9965    -2.0442 H       
  34 H34            3.9153    -0.0536    -2.4726 H       
  35 H35            3.1480    -2.9355     0.5812 H       
  36 H36           -0.2974     4.1073    -0.4238 H       
  37 H37            2.2618     0.9661     0.9756 H       
  38 H38            4.0938     2.5874     1.2331 H       
  39 H39            3.7374     4.9538     0.6626 H       
  40 H40            1.5480     5.7128    -0.1636 H       
  41 Br41          10.2040    11.0537     7.6818 Br      
@<TRIPOS>BOND
   1    1    2 2
   2    1   19 1
   3    1    5 1
   4    2    3 1
   5    2   13 1
   6    3    4 1
   7    4    5 2
   8    4    6 1
   9    6    7 1
  10    6   27 1
  11    7    8 ar
  12    7   12 ar
  13    8    9 ar
  14    8   28 1
  15    9   10 ar
  16    9   29 1
  17   10   11 ar
  18   10   26 1
  19   11   12 ar
  20   11   30 1
  21   12   31 1
  22   13   14 ar
  23   13   15 ar
  24   14   18 ar
  25   14   32 1
  26   15   16 ar
  27   15   33 1
  28   16   17 ar
  29   16   34 1
  30   17   18 ar
  31   17   25 1
  32   18   35 1
  33   19   20 ar
  34   19   21 ar
  35   20   24 ar
  36   20   36 1
  37   21   22 ar
  38   21   37 1
  39   22   23 ar
  40   22   38 1
  41   23   24 ar
  42   23   39 1
  43   24   40 1

#	End of record

