#	Name: ASD03570051
#	Creating user name:	WinNT
#	Creation time:	15. 06. 2019 20:43

#	Modifying user name:	WinNT
#	Modification time:	15. 06. 2019 20:43

#	Program:	/corina/corina34_cracker 3.40 0067  02.08.2006

@<TRIPOS>MOLECULE
ASD03570051
  58   61    0    0    0
SMALL
NO_CHARGES


@<TRIPOS>ATOM
   1 C1            -5.5796    -0.4014    -0.5910 C.ar    
   2 C2            -4.8673    -1.1237     0.3573 C.ar    
   3 C3            -5.5413    -1.7643     1.3880 C.ar    
   4 C4            -6.9180    -1.6816     1.4675 C.ar    
   5 C5            -7.6244    -0.9621     0.5216 C.ar    
   6 C6            -6.9557    -0.3224    -0.5062 C.ar    
   7 N7            -3.4705    -1.2061     0.2737 N.pl3   
   8 C8            -2.6175    -0.1677     0.0648 C.2     
   9 C9            -1.3549    -0.6724     0.0525 C.2     
  10 C10           -1.4421    -2.0525     0.2590 C.2     
  11 N11           -2.7036    -2.3719     0.3964 N.2     
  12 C12           -4.7721    -2.5496     2.4189 C.3     
  13 C13           -4.1615    -1.5885     3.4409 C.3     
  14 C14           -0.2795    -3.0095     0.3184 C.3     
  15 O15           -2.9632     1.1344    -0.1013 O.3     
  16 C16           -1.9684     2.0562    -0.1532 C.ar    
  17 C17            0.0534     3.8819    -0.2567 C.ar    
  18 C18            0.2905     2.5222    -0.2136 C.ar    
  19 N19           -0.7074     1.6599    -0.1638 N.ar    
  20 C20           -2.2852     3.4140    -0.2006 C.ar    
  21 C21           -1.2546     4.3445    -0.2534 C.ar    
  22 N22           -3.6224     3.8330    -0.1956 N.am    
  23 C23           -3.9814     4.9488    -0.8610 C.2     
  24 N24           -5.2791     5.3075    -0.9242 N.am    
  25 O25           -3.1347     5.6318    -1.4042 O.2     
  26 C26           -5.6646     6.4086    -1.7007 C.ar    
  27 C27           -4.9872     6.7002    -2.8769 C.ar    
  28 C28           -6.7278     7.2049    -1.2969 C.ar    
  29 C29           -7.1075     8.2895    -2.0627 C.ar    
  30 C30           -6.4272     8.5832    -3.2354 C.ar    
  31 C31           -5.3679     7.7851    -3.6418 C.ar    
  32 O32           -6.8021     9.6508    -3.9894 O.3     
  33 C33           -6.0575     9.8945    -5.1845 C.3     
  34 F34           -6.1558     8.7841    -6.0298 F       
  35 F35           -6.5729    11.0217    -5.8334 F       
  36 F36           -4.7148    10.1163    -4.8602 F       
  37 H37           -5.0576     0.1017    -1.3914 H       
  38 H38           -7.4429    -2.1798     2.2691 H       
  39 H39           -8.7007    -0.8992     0.5856 H       
  40 H40           -7.5102     0.2395    -1.2432 H       
  41 H41           -0.4459    -0.1074    -0.0919 H       
  42 H42           -5.4456    -3.2400     2.9266 H       
  43 H43           -3.9773    -3.1118     1.9287 H       
  44 H44           -3.6051    -2.1565     4.1865 H       
  45 H45           -3.4880    -0.8981     2.9332 H       
  46 H46           -4.9563    -1.0264     3.9311 H       
  47 H47            0.0703    -3.0928     1.3473 H       
  48 H48           -0.5970    -3.9895    -0.0379 H       
  49 H49            0.5291    -2.6384    -0.3114 H       
  50 H50            0.8780     4.5782    -0.2974 H       
  51 H51            1.3077     2.1592    -0.2161 H       
  52 H52           -1.4666     5.4030    -0.2866 H       
  53 H53           -4.2896     3.3201     0.2867 H       
  54 H54           -5.9461     4.8035    -0.4323 H       
  55 H55           -4.1624     6.0790    -3.1935 H       
  56 H56           -7.2580     6.9760    -0.3843 H       
  57 H57           -7.9346     8.9091    -1.7487 H       
  58 H58           -4.8410     8.0121    -4.5569 H       
@<TRIPOS>BOND
   1    1    2 ar
   2    1    6 ar
   3    1   37 1
   4    2    3 ar
   5    2    7 1
   6    3    4 ar
   7    3   12 1
   8    4    5 ar
   9    4   38 1
  10    5    6 ar
  11    5   39 1
  12    6   40 1
  13    7    8 1
  14    7   11 1
  15    8    9 2
  16    8   15 1
  17    9   10 1
  18    9   41 1
  19   10   11 2
  20   10   14 1
  21   12   13 1
  22   12   42 1
  23   12   43 1
  24   13   44 1
  25   13   45 1
  26   13   46 1
  27   14   47 1
  28   14   48 1
  29   14   49 1
  30   15   16 1
  31   16   20 ar
  32   16   19 ar
  33   17   18 ar
  34   17   21 ar
  35   17   50 1
  36   18   19 ar
  37   18   51 1
  38   20   21 ar
  39   20   22 1
  40   21   52 1
  41   22   23 am
  42   22   53 1
  43   23   24 am
  44   23   25 2
  45   24   26 1
  46   24   54 1
  47   26   28 ar
  48   26   27 ar
  49   27   31 ar
  50   27   55 1
  51   28   29 ar
  52   28   56 1
  53   29   30 ar
  54   29   57 1
  55   30   31 ar
  56   30   32 1
  57   31   58 1
  58   32   33 1
  59   33   34 1
  60   33   35 1
  61   33   36 1

#	End of record

