#	Name: ASD03092654
#	Creating user name:	WinNT
#	Creation time:	15. 06. 2019 20:32

#	Modifying user name:	WinNT
#	Modification time:	15. 06. 2019 20:32

#	Program:	/corina/corina34_cracker 3.40 0067  02.08.2006

@<TRIPOS>MOLECULE
ASD03092654
  50   53    0    0    0
SMALL
NO_CHARGES


@<TRIPOS>ATOM
   1 C1            -0.4742     1.3500    -1.0590 C.ar    
   2 C2            -0.4736    -0.0595    -1.0801 C.ar    
   3 C3             0.6385    -0.7507    -0.5502 C.ar    
   4 C4             1.6866     0.0060    -0.0295 C.ar    
   5 C5             1.6016     1.3896    -0.0498 C.ar    
   6 N6             0.5550     2.0098    -0.5489 N.ar    
   7 N7            -2.3759     0.5944    -1.9846 N.2     
   8 N8            -1.6625     1.7438    -1.6243 N.pl3   
   9 C9            -1.6867    -0.4672    -1.6752 C.2     
  10 C10            0.6887    -2.2281    -0.5477 C.2     
  11 O11           -0.3266    -2.8705    -0.3622 O.2     
  12 N12            1.8601    -2.8629    -0.7510 N.am    
  13 C13            2.7687    -4.9695    -1.5196 C.ar    
  14 C14            1.9200    -4.2605    -0.6840 C.ar    
  15 C15            1.1250    -4.9624     0.2273 C.ar    
  16 C16            1.2223    -6.3495     0.2543 C.ar    
  17 C17            2.0930    -6.9800    -0.6122 C.ar    
  18 N18            2.8287    -6.2861    -1.4596 N.ar    
  19 C19            3.6277    -4.2288    -2.5119 C.3     
  20 O20            0.2802    -4.3067     1.0645 O.3     
  21 C21           -0.4934    -5.1055     1.9620 C.3     
  22 C22           -2.0868     3.0657    -1.8082 C.ar    
  23 C23           -2.8347     3.4070    -2.9275 C.ar    
  24 C24           -3.2516     4.7116    -3.1060 C.ar    
  25 C25           -2.9251     5.6773    -2.1717 C.ar    
  26 C26           -2.1805     5.3406    -1.0561 C.ar    
  27 C27           -1.7655     4.0367    -0.8689 C.ar    
  28 C28            2.7375     2.2035     0.5144 C.3     
  29 C29           -2.1172    -1.8928    -1.9058 C.3     
  30 H30            2.5565    -0.4808     0.3862 H       
  31 H31            2.6616    -2.3517    -0.9438 H       
  32 H32            0.6245    -6.9262     0.9446 H       
  33 H33            2.1730    -8.0569    -0.5960 H       
  34 H34            4.5834    -3.9799    -2.0505 H       
  35 H35            3.7988    -4.8580    -3.3853 H       
  36 H36            3.1222    -3.3127    -2.8174 H       
  37 H37            0.1740    -5.6765     2.6075 H       
  38 H38           -1.1240    -4.4590     2.5723 H       
  39 H39           -1.1201    -5.7903     1.3908 H       
  40 H40           -3.0897     2.6533    -3.6577 H       
  41 H41           -3.8329     4.9777    -3.9764 H       
  42 H42           -3.2520     6.6968    -2.3138 H       
  43 H43           -1.9269     6.0972    -0.3284 H       
  44 H44           -1.1881     3.7734     0.0050 H       
  45 H45            3.4604     2.4138    -0.2738 H       
  46 H46            2.3500     3.1417     0.9117 H       
  47 H47            3.2237     1.6438     1.3135 H       
  48 H48           -2.5689    -2.2877    -0.9957 H       
  49 H49           -2.8449    -1.9260    -2.7166 H       
  50 H50           -1.2492    -2.4960    -2.1718 H       
@<TRIPOS>BOND
   1    1    2 ar
   2    1    6 ar
   3    1    8 1
   4    2    3 ar
   5    2    9 1
   6    3    4 ar
   7    3   10 1
   8    4    5 ar
   9    4   30 1
  10    5    6 ar
  11    5   28 1
  12    7    8 1
  13    7    9 2
  14    8   22 1
  15    9   29 1
  16   10   11 2
  17   10   12 am
  18   12   14 1
  19   12   31 1
  20   13   14 ar
  21   13   18 ar
  22   13   19 1
  23   14   15 ar
  24   15   16 ar
  25   15   20 1
  26   16   17 ar
  27   16   32 1
  28   17   18 ar
  29   17   33 1
  30   19   34 1
  31   19   35 1
  32   19   36 1
  33   20   21 1
  34   21   37 1
  35   21   38 1
  36   21   39 1
  37   22   23 ar
  38   22   27 ar
  39   23   24 ar
  40   23   40 1
  41   24   25 ar
  42   24   41 1
  43   25   26 ar
  44   25   42 1
  45   26   27 ar
  46   26   43 1
  47   27   44 1
  48   28   45 1
  49   28   46 1
  50   28   47 1
  51   29   48 1
  52   29   49 1
  53   29   50 1

#	End of record

