#	Name: ASD01916354
#	Creating user name:	WinNT
#	Creation time:	15. 06. 2019 20:07

#	Modifying user name:	WinNT
#	Modification time:	15. 06. 2019 20:07

#	Program:	/corina/corina34_cracker 3.40 0067  02.08.2006

@<TRIPOS>MOLECULE
ASD01916354
  40   42    0    0    0
SMALL
NO_CHARGES


@<TRIPOS>ATOM
   1 C1            -0.0307     1.5479    -0.0189 C.3     
   2 C2            -0.0181     0.0137    -0.0313 C.3     
   3 C3             0.6143    -0.4800    -1.3304 C.3     
   4 C4             1.9756     0.1223    -1.5341 C.ar    
   5 C5             2.3507     1.3160    -0.9072 C.ar    
   6 C6             1.4113     2.0142    -0.0187 C.2     
   7 O7             1.7765     2.9293     0.6888 O.2     
   8 C8             0.7952    -0.4992     1.1589 C.3     
   9 C9            -1.4526    -0.5089     0.0683 C.3     
  10 N10            2.8505    -0.4784    -2.3220 N.ar    
  11 C11            4.0569     0.0384    -2.5171 C.ar    
  12 N12            4.4454     1.1694    -1.9411 N.ar    
  13 C13            3.6327     1.8320    -1.1385 C.ar    
  14 N14            4.9381    -0.6230    -3.3470 N.pl3   
  15 C15            6.1702    -0.0428    -3.6629 C.ar    
  16 C16            7.2929    -0.8427    -3.8338 C.ar    
  17 C17            8.5084    -0.2664    -4.1464 C.ar    
  18 C18            8.6086     1.1055    -4.2892 C.ar    
  19 C19            7.4929     1.9047    -4.1193 C.ar    
  20 C20            6.2732     1.3343    -3.8123 C.ar    
  21 C21            9.9366     1.7308    -4.6303 C.3     
  22 H22           -0.5405     1.9212    -0.9071 H       
  23 H23           -0.5362     1.9068     0.8776 H       
  24 H24            0.7057    -1.5656    -1.2934 H       
  25 H25           -0.0273    -0.2046    -2.1674 H       
  26 H26            0.3436    -0.1470     2.0863 H       
  27 H27            0.8042    -1.5891     1.1501 H       
  28 H28            1.8171    -0.1268     1.0881 H       
  29 H29           -2.0322    -0.1434    -0.7795 H       
  30 H30           -1.4437    -1.5988     0.0595 H       
  31 H31           -1.9040    -0.1567     0.9958 H       
  32 H32            3.9495     2.7522    -0.6703 H       
  33 H33            4.7030    -1.4907    -3.7113 H       
  34 H34            7.2154    -1.9141    -3.7221 H       
  35 H35            9.3817    -0.8877    -4.2790 H       
  36 H36            7.5746     2.9758    -4.2312 H       
  37 H37            5.4023     1.9591    -3.6797 H       
  38 H38           10.0413     1.7931    -5.7134 H       
  39 H39            9.9874     2.7320    -4.2021 H       
  40 H40           10.7415     1.1198    -4.2219 H       
@<TRIPOS>BOND
   1    1    2 1
   2    1    6 1
   3    1   22 1
   4    1   23 1
   5    2    3 1
   6    2    8 1
   7    2    9 1
   8    3    4 1
   9    3   24 1
  10    3   25 1
  11    4    5 ar
  12    4   10 ar
  13    5    6 1
  14    5   13 ar
  15    6    7 2
  16    8   26 1
  17    8   27 1
  18    8   28 1
  19    9   29 1
  20    9   30 1
  21    9   31 1
  22   10   11 ar
  23   11   12 ar
  24   11   14 1
  25   12   13 ar
  26   13   32 1
  27   14   15 1
  28   14   33 1
  29   15   16 ar
  30   15   20 ar
  31   16   17 ar
  32   16   34 1
  33   17   18 ar
  34   17   35 1
  35   18   19 ar
  36   18   21 1
  37   19   20 ar
  38   19   36 1
  39   20   37 1
  40   21   38 1
  41   21   39 1
  42   21   40 1

#	End of record

