#	Name: ASD03082055
#	Creating user name:	WinNT
#	Creation time:	15. 06. 2019 20:27

#	Modifying user name:	WinNT
#	Modification time:	15. 06. 2019 20:27

#	Program:	/corina/corina34_cracker 3.40 0067  02.08.2006

@<TRIPOS>MOLECULE
ASD03082055
  68   72    0    0    0
SMALL
NO_CHARGES


@<TRIPOS>ATOM
   1 C1            -0.0187     1.5261     0.0104 C.3     
   2 C2             0.0021    -0.0041     0.0020 C.3     
   3 N3             0.7064    -0.4787    -1.1959 N.3     
   4 C4             2.1034    -0.0262    -1.2048 C.3     
   5 C5             2.1454     1.5033    -1.2324 C.3     
   6 C6             1.4196     2.0513    -0.0005 C.3     
   7 C7             0.6260    -1.9412    -1.3090 C.3     
   8 C8            -0.8267    -2.3547    -1.5531 C.3     
   9 C9            -0.9104    -3.8779    -1.6709 C.3     
  10 C10           -2.3412    -4.2852    -1.9113 C.ar    
  11 C11           -2.8223    -4.3903    -3.2030 C.ar    
  12 C12           -4.1348    -4.7639    -3.4235 C.ar    
  13 C13           -4.9661    -5.0329    -2.3523 C.ar    
  14 C14           -4.4848    -4.9287    -1.0607 C.ar    
  15 C15           -3.1711    -4.5593    -0.8403 C.ar    
  16 C16            3.6009     1.9747    -1.2194 C.3     
  17 O17            3.6433     3.4188    -1.3648 O.3     
  18 C18            4.8603     3.9974    -1.3728 C.2     
  19 O19            5.8587     3.3139    -1.2613 O.2     
  20 C20            4.9803     5.4599    -1.5168 C.ar    
  21 C21            3.8370     6.2493    -1.6451 C.ar    
  22 C22            3.9553     7.6172    -1.7791 C.ar    
  23 C23            5.2044     8.2161    -1.7878 C.ar    
  24 C24            6.3473     7.4526    -1.6626 C.ar    
  25 C25            6.2497     6.0702    -1.5199 C.ar    
  26 C26            7.4713     5.2478    -1.3849 C.ar    
  27 C27            7.8153     4.3074    -2.3862 C.ar    
  28 C28            8.9904     3.5318    -2.2338 C.ar    
  29 C29            9.7931     3.7076    -1.0936 C.ar    
  30 C30            9.4405     4.6187    -0.1438 C.ar    
  31 C31            8.2945     5.3929    -0.2804 C.ar    
  32 C32            7.0149     4.1303    -3.5236 C.ar    
  33 C33            7.3759     3.2163    -4.4669 C.ar    
  34 C34            8.5315     2.4523    -4.3187 C.ar    
  35 C35            9.3322     2.5982    -3.2276 C.ar    
  36 H36           -0.5449     1.8878    -0.8730 H       
  37 H37           -0.5279     1.8782     0.9076 H       
  38 H38            0.5163    -0.3652     0.8927 H       
  39 H39           -1.0206    -0.3811    -0.0047 H       
  40 H40            2.6078    -0.3873    -0.3085 H       
  41 H41            2.6069    -0.4194    -2.0879 H       
  42 H42            1.6532     1.8646    -2.1353 H       
  43 H43            1.4094     3.1406    -0.0383 H       
  44 H44            1.9345     1.7220     0.9021 H       
  45 H45            1.2439    -2.2756    -2.1424 H       
  46 H46            0.9834    -2.3972    -0.3858 H       
  47 H47           -1.4446    -2.0203    -0.7198 H       
  48 H48           -1.1841    -1.8987    -2.4764 H       
  49 H49           -0.2925    -4.2123    -2.5043 H       
  50 H50           -0.5530    -4.3339    -0.7477 H       
  51 H51           -2.1728    -4.1801    -4.0399 H       
  52 H52           -4.5108    -4.8453    -4.4326 H       
  53 H53           -5.9918    -5.3241    -2.5246 H       
  54 H54           -5.1344    -5.1385    -0.2238 H       
  55 H55           -2.7951    -4.4779     0.1689 H       
  56 H56            4.0664     1.6907    -0.2756 H       
  57 H57            4.1405     1.5104    -2.0449 H       
  58 H58            2.8597     5.7896    -1.6399 H       
  59 H59            3.0682     8.2251    -1.8782 H       
  60 H60            5.2844     9.2879    -1.8936 H       
  61 H61            7.3173     7.9274    -1.6706 H       
  62 H62           10.6905     3.1196    -0.9700 H       
  63 H63           10.0653     4.7450     0.7280 H       
  64 H64            8.0380     6.1081     0.4871 H       
  65 H65            6.1162     4.7156    -3.6511 H       
  66 H66            6.7573     3.0816    -5.3419 H       
  67 H67            8.7958     1.7340    -5.0806 H       
  68 H68           10.2251     1.9993    -3.1257 H       
@<TRIPOS>BOND
   1    1    2 1
   2    1    6 1
   3    1   36 1
   4    1   37 1
   5    2    3 1
   6    2   38 1
   7    2   39 1
   8    3    4 1
   9    3    7 1
  10    4    5 1
  11    4   40 1
  12    4   41 1
  13    5    6 1
  14    5   16 1
  15    5   42 1
  16    6   43 1
  17    6   44 1
  18    7    8 1
  19    7   45 1
  20    7   46 1
  21    8    9 1
  22    8   47 1
  23    8   48 1
  24    9   10 1
  25    9   49 1
  26    9   50 1
  27   10   11 ar
  28   10   15 ar
  29   11   12 ar
  30   11   51 1
  31   12   13 ar
  32   12   52 1
  33   13   14 ar
  34   13   53 1
  35   14   15 ar
  36   14   54 1
  37   15   55 1
  38   16   17 1
  39   16   56 1
  40   16   57 1
  41   17   18 1
  42   18   19 2
  43   18   20 1
  44   20   21 ar
  45   20   25 ar
  46   21   22 ar
  47   21   58 1
  48   22   23 ar
  49   22   59 1
  50   23   24 ar
  51   23   60 1
  52   24   25 ar
  53   24   61 1
  54   25   26 1
  55   26   27 ar
  56   26   31 ar
  57   27   28 ar
  58   27   32 ar
  59   28   29 ar
  60   28   35 ar
  61   29   30 ar
  62   29   62 1
  63   30   31 ar
  64   30   63 1
  65   31   64 1
  66   32   33 ar
  67   32   65 1
  68   33   34 ar
  69   33   66 1
  70   34   35 ar
  71   34   67 1
  72   35   68 1

#	End of record

