#	Name: ASD01903006
#	Creating user name:	WinNT
#	Creation time:	15. 06. 2019 19:54

#	Modifying user name:	WinNT
#	Modification time:	15. 06. 2019 19:54

#	Program:	/corina/corina34_cracker 3.40 0067  02.08.2006

@<TRIPOS>MOLECULE
ASD01903006
  27   28    0    0    0
SMALL
NO_CHARGES


@<TRIPOS>ATOM
   1 C1            -0.0023     1.3867    -0.2251 C.ar    
   2 C2             0.0133     0.0011    -0.2383 C.ar    
   3 C3             1.2045    -0.6809    -0.0311 C.ar    
   4 C4             2.3747     0.0201     0.1888 C.ar    
   5 C5             2.3633     1.4016     0.2032 C.ar    
   6 C6             1.1744     2.0893    -0.0044 C.ar    
   7 N7             1.1627     3.4875     0.0102 N.am    
   8 C8             0.1021     4.1473     0.5163 C.2     
   9 O9            -0.8806     3.5297     0.8826 O.2     
  10 C10            0.1321     5.6084     0.6257 C.2     
  11 S11            1.4710     6.6402     0.1419 S.3     
  12 C12            0.6243     8.0423     0.6196 C.2     
  13 C13           -0.5821     7.7301     1.1072 C.2     
  14 C14           -0.8786     6.3878     1.1147 C.2     
  15 O15           -1.1370    -0.6898    -0.4536 O.3     
  16 C16           -1.0469    -2.1159    -0.4539 C.3     
  17 H17           -0.9274     1.9189    -0.3905 H       
  18 H18            1.2165    -1.7607    -0.0415 H       
  19 H19            3.3001    -0.5130     0.3501 H       
  20 H20            3.2793     1.9471     0.3757 H       
  21 H21            1.9179     3.9826    -0.3441 H       
  22 H22            1.0106     9.0477     0.5395 H       
  23 H23           -1.2740     8.4784     1.4647 H       
  24 H24           -1.8136     5.9882     1.4786 H       
  25 H25           -0.6771    -2.4568     0.5131 H       
  26 H26           -2.0333    -2.5423    -0.6366 H       
  27 H27           -0.3615    -2.4365    -1.2385 H       
@<TRIPOS>BOND
   1    1    2 ar
   2    1    6 ar
   3    1   17 1
   4    2    3 ar
   5    2   15 1
   6    3    4 ar
   7    3   18 1
   8    4    5 ar
   9    4   19 1
  10    5    6 ar
  11    5   20 1
  12    6    7 1
  13    7    8 am
  14    7   21 1
  15    8    9 2
  16    8   10 1
  17   10   11 1
  18   10   14 2
  19   11   12 1
  20   12   13 2
  21   12   22 1
  22   13   14 1
  23   13   23 1
  24   14   24 1
  25   15   16 1
  26   16   25 1
  27   16   26 1
  28   16   27 1

#	End of record

