#	Name: ASD05380065
#	Creating user name:	WinNT
#	Creation time:	15. 06. 2019 20:59

#	Modifying user name:	WinNT
#	Modification time:	15. 06. 2019 20:59

#	Program:	/corina/corina34_cracker 3.40 0067  02.08.2006

@<TRIPOS>MOLECULE
ASD05380065
  52   56    0    0    0
SMALL
NO_CHARGES


@<TRIPOS>ATOM
   1 C1            -0.0164     1.4086     0.0403 C.ar    
   2 C2             0.0027    -0.0042     0.0324 C.ar    
   3 C3             1.1791     2.1230     0.0022 C.ar    
   4 C4             2.3759     1.4417    -0.0431 C.ar    
   5 C5             2.3984     0.0534    -0.0515 C.ar    
   6 C6             1.2283    -0.6714    -0.0133 C.ar    
   7 N7            -1.1735    -0.6785     0.0701 N.2     
   8 C8            -2.3131    -0.0575     0.1130 C.2     
   9 N9            -2.4259     1.2978     0.1234 N.am    
  10 C10           -1.3225     2.0811     0.0955 C.2     
  11 C11           -3.6966     1.8890     0.1698 C.ar    
  12 C12           -4.2868     2.1770     1.3949 C.ar    
  13 C13           -4.3669     2.1937    -1.0091 C.ar    
  14 C14           -5.6204     2.7769    -0.9591 C.ar    
  15 C15           -6.2065     3.0566     0.2616 C.ar    
  16 C16           -5.5406     2.7602     1.4365 C.ar    
  17 C17           -3.5750    -0.8805     0.1529 C.3     
  18 N18           -3.3942    -2.0909    -0.6523 N.pl3   
  19 C19           -4.4939    -2.7290    -1.1989 C.ar    
  20 N20           -5.7208    -2.2570    -1.0032 N.ar    
  21 O21           -1.4086     3.2954     0.1048 O.2     
  22 C22           -4.3387    -3.8876    -1.9785 C.ar    
  23 C23           -5.4926    -4.4912    -2.5068 C.ar    
  24 N24           -6.6790    -3.9494    -2.2524 N.ar    
  25 C25           -6.7758    -2.8592    -1.5208 C.ar    
  26 N26           -3.2795    -4.6290    -2.3830 N.2     
  27 C27           -3.6994    -5.6248    -3.1081 C.2     
  28 N28           -5.0579    -5.5836    -3.2139 N.pl3   
  29 F29           -3.7948     1.9212    -2.2023 F       
  30 F30           -3.6371     1.8873     2.5435 F       
  31 C31            1.1633     3.6299     0.0100 C.3     
  32 C32           -3.8833    -1.2716     1.5996 C.3     
  33 C33           -5.2278    -1.9995     1.6556 C.3     
  34 H34            3.3046     1.9923    -0.0727 H       
  35 H35            3.3455    -0.4644    -0.0879 H       
  36 H36            1.2583    -1.7510    -0.0199 H       
  37 H37           -6.1417     3.0143    -1.8746 H       
  38 H38           -7.1852     3.5118     0.2973 H       
  39 H39           -6.0018     2.9802     2.3880 H       
  40 H40           -4.4025    -0.2964    -0.2498 H       
  41 H41           -2.5037    -2.4451    -0.8023 H       
  42 H42           -7.7548    -2.4421    -1.3366 H       
  43 H43           -3.0651    -6.3734    -3.5594 H       
  44 H44           -5.6150    -6.2119    -3.6995 H       
  45 H45            1.0796     3.9871     1.0364 H       
  46 H46            2.0868     4.0052    -0.4311 H       
  47 H47            0.3123     3.9874    -0.5697 H       
  48 H48           -3.0983    -1.9290     1.9734 H       
  49 H49           -3.9300    -0.3742     2.2165 H       
  50 H50           -6.0128    -1.3421     1.2818 H       
  51 H51           -5.1811    -2.8969     1.0387 H       
  52 H52           -5.4474    -2.2782     2.6863 H       
@<TRIPOS>BOND
   1    1    2 ar
   2    1    3 ar
   3    1   10 1
   4    2    7 1
   5    2    6 ar
   6    3    4 ar
   7    3   31 1
   8    4    5 ar
   9    4   34 1
  10    5    6 ar
  11    5   35 1
  12    6   36 1
  13    7    8 2
  14    8    9 1
  15    8   17 1
  16    9   10 am
  17    9   11 1
  18   10   21 2
  19   11   12 ar
  20   11   13 ar
  21   12   30 1
  22   12   16 ar
  23   13   14 ar
  24   13   29 1
  25   14   15 ar
  26   14   37 1
  27   15   16 ar
  28   15   38 1
  29   16   39 1
  30   17   18 1
  31   17   32 1
  32   17   40 1
  33   18   19 1
  34   18   41 1
  35   19   20 ar
  36   19   22 ar
  37   20   25 ar
  38   22   23 ar
  39   22   26 1
  40   23   24 ar
  41   23   28 1
  42   24   25 ar
  43   25   42 1
  44   26   27 2
  45   27   28 1
  46   27   43 1
  47   28   44 1
  48   31   45 1
  49   31   46 1
  50   31   47 1
  51   32   33 1
  52   32   48 1
  53   32   49 1
  54   33   50 1
  55   33   51 1
  56   33   52 1

#	End of record

