#	Name: ASD05213021
#	Creating user name:	WinNT
#	Creation time:	15. 06. 2019 20:57

#	Modifying user name:	WinNT
#	Modification time:	15. 06. 2019 20:57

#	Program:	/corina/corina34_cracker 3.40 0067  02.08.2006

@<TRIPOS>MOLECULE
ASD05213021
  23   25    0    0    0
SMALL
NO_CHARGES


@<TRIPOS>ATOM
   1 S1            -0.0218     1.7577     0.0117 S.3     
   2 C2             0.0021    -0.0041     0.0020 C.2     
   3 C3             1.7090     2.0873    -0.0030 C.2     
   4 N4             2.2454     3.2813    -0.0018 N.2     
   5 C5             3.5999     3.1513    -0.0149 C.ar    
   6 C6             3.8716     1.7748    -0.0246 C.ar    
   7 O7             2.6725     1.1486    -0.0114 O.3     
   8 C8             4.6557     4.0643    -0.0198 C.ar    
   9 C9             5.9549     3.6064    -0.0342 C.ar    
  10 C10            6.2189     2.2453    -0.0437 C.ar    
  11 C11            5.1842     1.3317    -0.0390 C.ar    
  12 S12           -1.3858    -1.0024     0.0099 S.3     
  13 C13           -0.3659    -2.4387    -0.0075 C.2     
  14 C14            0.9078    -2.0421    -0.0176 C.2     
  15 N15            1.0751    -0.7325    -0.0177 N.2     
  16 N16           -0.8401    -3.8429    -0.0101 N.pl3   
  17 O17           -0.0356    -4.7574    -0.0223 O.2     
  18 O18           -2.0343    -4.0824    -0.0000 O.2     
  19 H19            4.4548     5.1255    -0.0128 H       
  20 H20            6.7726     4.3119    -0.0384 H       
  21 H21            7.2412     1.8975    -0.0553 H       
  22 H22            5.3975     0.2730    -0.0461 H       
  23 H23            1.7352    -2.7361    -0.0292 H       
@<TRIPOS>BOND
   1    1    2 1
   2    1    3 1
   3    2   12 1
   4    2   15 2
   5    3    4 2
   6    3    7 1
   7    4    5 1
   8    5    6 ar
   9    5    8 ar
  10    6    7 1
  11    6   11 ar
  12    8    9 ar
  13    8   19 1
  14    9   10 ar
  15    9   20 1
  16   10   11 ar
  17   10   21 1
  18   11   22 1
  19   12   13 1
  20   13   14 2
  21   13   16 1
  22   14   15 1
  23   14   23 1
  24   16   17 2
  25   16   18 2

#	End of record

