#	Name: ASD04870004
#	Creating user name:	WinNT
#	Creation time:	15. 06. 2019 20:52

#	Modifying user name:	WinNT
#	Modification time:	15. 06. 2019 20:52

#	Program:	/corina/corina34_cracker 3.40 0067  02.08.2006

@<TRIPOS>MOLECULE
ASD04870004
  49   51    0    0    0
SMALL
NO_CHARGES


@<TRIPOS>ATOM
   1 C1            -0.0158     1.3120     0.0093 C.ar    
   2 N2             0.0021    -0.0041     0.0020 N.ar    
   3 C3             1.1547    -0.6659    -0.0125 C.ar    
   4 C4             2.3582     0.0588    -0.0201 C.ar    
   5 C5             2.2874     1.4625    -0.0123 C.ar    
   6 N6             1.0888     2.0360     0.0026 N.ar    
   7 N7             1.5109    -1.9908    -0.0230 N.pl3   
   8 C8             2.8728    -2.0476    -0.0363 C.2     
   9 N9             3.3679    -0.8441    -0.0346 N.2     
  10 N10            3.4393     2.2295    -0.0187 N.pl3   
  11 C11            0.5956    -3.1346    -0.0197 C.3     
  12 C12            0.8301    -4.0290    -1.2624 C.3     
  13 C13            0.9167    -4.0912     1.1554 C.3     
  14 C14            0.3534    -5.4531     0.6994 C.3     
  15 C15            0.2984    -5.4135    -0.8379 C.3     
  16 C16            1.2754    -6.5830     1.1619 C.3     
  17 O17           -1.0493    -5.5780    -1.2839 O.3     
  18 O18            0.0942    -3.5324    -2.3821 O.3     
  19 O19            0.6853    -7.8430     0.8358 O.3     
  20 P20            1.3834    -9.2529     1.1776 P.3     
  21 O21            0.5067   -10.4509     0.5544 O.3     
  22 O22            2.7442    -9.2834     0.5965 O.2     
  23 O23            1.4778    -9.4318     2.7749 O.3     
  24 P24            0.7856   -12.0113     0.2722 P.3     
  25 O25           -0.2630   -12.5546    -0.8219 O.3     
  26 O26            2.1642   -12.1815    -0.2386 O.2     
  27 O27            0.6135   -12.8431     1.6399 O.3     
  28 P28           -0.3377   -13.8748    -1.7404 P.3     
  29 O29           -1.8238   -14.0274    -2.3409 O.3     
  30 O30            0.7189   -13.7485    -2.9486 O.3     
  31 O31           -0.0118   -15.0641    -0.9222 O.2     
  32 H32           -0.9694     1.8188     0.0165 H       
  33 H33            3.4550    -2.9572    -0.0467 H       
  34 H34            4.3085     1.7991    -0.0287 H       
  35 H35            3.3774     3.1975    -0.0132 H       
  36 H36           -0.4403    -2.7984     0.0242 H       
  37 H37            1.8928    -4.0824    -1.4989 H       
  38 H38            1.9936    -4.1566     1.3108 H       
  39 H39            0.4185    -3.7579     2.0657 H       
  40 H40           -0.6478    -5.5978     1.1052 H       
  41 H41            0.9285    -6.1993    -1.2544 H       
  42 H42            2.2396    -6.4931     0.6615 H       
  43 H43            1.4183    -6.5170     2.2405 H       
  44 H44           -1.1500    -5.5620    -2.2455 H       
  45 H45            0.2044    -4.0549    -3.1883 H       
  46 H46            0.6211    -9.4215     3.2231 H       
  47 H47           -0.2680   -12.7771     2.0321 H       
  48 H48           -1.9420   -14.8034    -2.9057 H       
  49 H49            0.5657   -12.9892    -3.5274 H       
@<TRIPOS>BOND
   1    1    2 ar
   2    1    6 ar
   3    1   32 1
   4    2    3 ar
   5    3    4 ar
   6    3    7 1
   7    4    5 ar
   8    4    9 1
   9    5    6 ar
  10    5   10 1
  11    7    8 1
  12    7   11 1
  13    8    9 2
  14    8   33 1
  15   10   34 1
  16   10   35 1
  17   11   12 1
  18   11   13 1
  19   11   36 1
  20   12   18 1
  21   12   15 1
  22   12   37 1
  23   13   14 1
  24   13   38 1
  25   13   39 1
  26   14   15 1
  27   14   16 1
  28   14   40 1
  29   15   17 1
  30   15   41 1
  31   16   19 1
  32   16   42 1
  33   16   43 1
  34   17   44 1
  35   18   45 1
  36   19   20 1
  37   20   21 1
  38   20   22 2
  39   20   23 1
  40   21   24 1
  41   23   46 1
  42   24   25 1
  43   24   26 2
  44   24   27 1
  45   25   28 1
  46   27   47 1
  47   28   29 1
  48   28   30 1
  49   28   31 2
  50   29   48 1
  51   30   49 1

#	End of record

