#	Name: ASD00071119
#	Creating user name:	WinNT
#	Creation time:	15. 06. 2019 18:30

#	Modifying user name:	WinNT
#	Modification time:	15. 06. 2019 18:30

#	Program:	/corina/corina34_cracker 3.40 0067  02.08.2006

@<TRIPOS>MOLECULE
ASD00071119
  53   56    0    0    0
SMALL
NO_CHARGES


@<TRIPOS>ATOM
   1 N1            -0.0157     1.3065     0.0092 N.2     
   2 C2             0.0021    -0.0041     0.0020 C.2     
   3 N3             1.1984    -0.6822     0.0317 N.pl3   
   4 C4             2.3732    -0.0684    -0.6058 C.3     
   5 C5             2.3601     1.4066    -0.2838 C.ar    
   6 C6             3.5306     2.1320    -0.2741 C.ar    
   7 C7             3.5023     3.4864     0.0113 C.ar    
   8 C8             2.3010     4.1157     0.2867 C.ar    
   9 C9             1.1230     3.3980     0.2846 C.ar    
  10 C10            1.1441     2.0306     0.0020 C.ar    
  11 N11           -1.1783    -0.7029    -0.0348 N.pl3   
  12 C12           -2.4545     0.0160    -0.0660 C.3     
  13 C13           -3.6061    -0.9906    -0.1039 C.3     
  14 C14           -4.9188    -0.2511    -0.1359 C.ar    
  15 C15           -5.4876     0.0950    -1.3473 C.ar    
  16 C16           -6.6917     0.7734    -1.3767 C.ar    
  17 C17           -7.3272     1.1051    -0.1947 C.ar    
  18 C18           -6.7588     0.7582     1.0166 C.ar    
  19 C19           -5.5568     0.0760     1.0459 C.ar    
  20 C20            1.3004    -1.9893     0.6854 C.3     
  21 C21            1.0037    -3.0761    -0.3155 C.ar    
  22 C22            1.9845    -3.4848    -1.2078 C.ar    
  23 C23            1.7083    -4.4854    -2.1279 C.ar    
  24 C24            0.4578    -5.0725    -2.1538 C.ar    
  25 C25           -0.5178    -4.6632    -1.2640 C.ar    
  26 C26           -0.2430    -3.6701    -0.3416 C.ar    
  27 O27            3.2135    -2.9055    -1.1807 O.3     
  28 C28            4.1738    -3.3764    -2.1285 C.3     
  29 H29            3.2838    -0.5228    -0.2154 H       
  30 H30            2.3231    -0.2105    -1.6853 H       
  31 H31            4.4702     1.6446    -0.4885 H       
  32 H32            4.4211     4.0539     0.0193 H       
  33 H33            2.2857     5.1734     0.5045 H       
  34 H34            0.1873     3.8920     0.5009 H       
  35 H35           -1.1678    -1.6728    -0.0402 H       
  36 H36           -2.5437     0.6368     0.8255 H       
  37 H37           -2.4943     0.6472    -0.9537 H       
  38 H38           -3.5169    -1.6114    -0.9954 H       
  39 H39           -3.5662    -1.6218     0.7839 H       
  40 H40           -4.9912    -0.1642    -2.2707 H       
  41 H41           -7.1358     1.0445    -2.3231 H       
  42 H42           -8.2676     1.6357    -0.2177 H       
  43 H43           -7.2551     1.0177     1.9401 H       
  44 H44           -5.1145    -0.1983     1.9923 H       
  45 H45            2.3088    -2.1217     1.0774 H       
  46 H46            0.5825    -2.0432     1.5038 H       
  47 H47            2.4699    -4.8051    -2.8238 H       
  48 H48            0.2422    -5.8516    -2.8700 H       
  49 H49           -1.4949    -5.1228    -1.2863 H       
  50 H50           -1.0053    -3.3554     0.3556 H       
  51 H51            4.3481    -4.4407    -1.9709 H       
  52 H52            3.7964    -3.2156    -3.1384 H       
  53 H53            5.1091    -2.8319    -1.9991 H       
@<TRIPOS>BOND
   1    1    2 2
   2    1   10 1
   3    2    3 1
   4    2   11 1
   5    3    4 1
   6    3   20 1
   7    4    5 1
   8    4   29 1
   9    4   30 1
  10    5    6 ar
  11    5   10 ar
  12    6    7 ar
  13    6   31 1
  14    7    8 ar
  15    7   32 1
  16    8    9 ar
  17    8   33 1
  18    9   10 ar
  19    9   34 1
  20   11   12 1
  21   11   35 1
  22   12   13 1
  23   12   36 1
  24   12   37 1
  25   13   14 1
  26   13   38 1
  27   13   39 1
  28   14   15 ar
  29   14   19 ar
  30   15   16 ar
  31   15   40 1
  32   16   17 ar
  33   16   41 1
  34   17   18 ar
  35   17   42 1
  36   18   19 ar
  37   18   43 1
  38   19   44 1
  39   20   21 1
  40   20   45 1
  41   20   46 1
  42   21   22 ar
  43   21   26 ar
  44   22   23 ar
  45   22   27 1
  46   23   24 ar
  47   23   47 1
  48   24   25 ar
  49   24   48 1
  50   25   26 ar
  51   25   49 1
  52   26   50 1
  53   27   28 1
  54   28   51 1
  55   28   52 1
  56   28   53 1

#	End of record

