#	Name: ASD01912741
#	Creating user name:	WinNT
#	Creation time:	15. 06. 2019 20:00

#	Modifying user name:	WinNT
#	Modification time:	15. 06. 2019 20:00

#	Program:	/corina/corina34_cracker 3.40 0067  02.08.2006

@<TRIPOS>MOLECULE
ASD01912741
  41   44    0    0    0
SMALL
NO_CHARGES


@<TRIPOS>ATOM
   1 C1            -0.0192     1.3589     0.1473 C.2     
   2 N2             0.0024    -0.0033    -0.0081 N.pl3   
   3 C3            -1.1993    -0.6830    -0.1423 C.2     
   4 C4            -2.3600    -0.0413    -0.1233 C.2     
   5 N5            -2.4359     1.3309     0.0302 N.am    
   6 C6            -1.3051     2.0577     0.1735 C.2     
   7 C7             1.2966     1.7688     0.2551 C.2     
   8 C8             2.0519     0.6014     0.1560 C.2     
   9 N9             1.2243    -0.4049     0.0022 N.2     
  10 O10           -1.3545     3.2668     0.3097 O.2     
  11 C11           -3.6770     1.9631     0.0433 C.ar    
  12 C12            3.5550     0.5111     0.2150 C.3     
  13 O13            4.1042     1.8186     0.3905 O.3     
  14 C14            5.4579     1.9145     0.4640 C.ar    
  15 C15            6.0585     3.1535     0.6339 C.ar    
  16 C16            7.4346     3.2483     0.7083 C.ar    
  17 C17            8.2133     2.1097     0.6135 C.ar    
  18 C18            7.6172     0.8738     0.4437 C.ar    
  19 C19            6.2411     0.7729     0.3749 C.ar    
  20 C20           -4.2726     2.3856    -1.1503 C.ar    
  21 C21           -5.5094     3.0095    -1.0815 C.ar    
  22 C22           -5.4918     2.7672     1.2059 C.ar    
  23 N23           -4.3173     2.1700     1.1886 N.ar    
  24 N24           -6.0792     3.1824     0.1020 N.ar    
  25 O25           -3.6551     2.1901    -2.3458 O.3     
  26 C26           -4.3378     2.6543    -3.5122 C.3     
  27 H27           -1.1896    -1.7560    -0.2651 H       
  28 H28           -3.2733    -0.6075    -0.2314 H       
  29 H29            1.6610     2.7768     0.3876 H       
  30 H30            3.8484    -0.1216     1.0527 H       
  31 H31            3.9300     0.0812    -0.7138 H       
  32 H32            5.4507     4.0432     0.7077 H       
  33 H33            7.9027     4.2126     0.8403 H       
  34 H34            9.2891     2.1859     0.6719 H       
  35 H35            8.2276    -0.0141     0.3692 H       
  36 H36            5.7759    -0.1927     0.2422 H       
  37 H37           -6.0012     3.3502    -1.9806 H       
  38 H38           -5.9875     2.9210     2.1530 H       
  39 H39           -3.7374     2.4364    -4.3955 H       
  40 H40           -5.3009     2.1504    -3.5942 H       
  41 H41           -4.4959     3.7301    -3.4367 H       
@<TRIPOS>BOND
   1    1    2 1
   2    1    7 2
   3    1    6 1
   4    2    3 1
   5    2    9 1
   6    3    4 2
   7    3   27 1
   8    4    5 1
   9    4   28 1
  10    5    6 am
  11    5   11 1
  12    6   10 2
  13    7    8 1
  14    7   29 1
  15    8    9 2
  16    8   12 1
  17   11   20 ar
  18   11   23 ar
  19   12   13 1
  20   12   30 1
  21   12   31 1
  22   13   14 1
  23   14   15 ar
  24   14   19 ar
  25   15   16 ar
  26   15   32 1
  27   16   17 ar
  28   16   33 1
  29   17   18 ar
  30   17   34 1
  31   18   19 ar
  32   18   35 1
  33   19   36 1
  34   20   21 ar
  35   20   25 1
  36   21   24 ar
  37   21   37 1
  38   22   23 ar
  39   22   24 ar
  40   22   38 1
  41   25   26 1
  42   26   39 1
  43   26   40 1
  44   26   41 1

#	End of record

