#	Name: ASD04591134
#	Creating user name:	WinNT
#	Creation time:	15. 06. 2019 20:52

#	Modifying user name:	WinNT
#	Modification time:	15. 06. 2019 20:52

#	Program:	/corina/corina34_cracker 3.40 0067  02.08.2006

@<TRIPOS>MOLECULE
ASD04591134
  58   63    0    0    0
SMALL
NO_CHARGES


@<TRIPOS>ATOM
   1 N1            -0.0048     1.2572     0.4833 N.ar    
   2 C2             0.0008    -0.0520     0.2675 C.ar    
   3 N3             1.1166    -0.7632     0.2621 N.ar    
   4 C4             2.2922    -0.1798     0.4762 C.ar    
   5 C5             2.3200     1.2101     0.7082 C.ar    
   6 C6             1.1209     1.9158     0.7047 C.ar    
   7 N7             3.5796    -0.6540     0.5271 N.pl3   
   8 C8             4.4651     0.3779     0.7860 C.ar    
   9 C9             3.7294     1.5702     0.9088 C.ar    
  10 C10            5.8450     0.4332     0.9334 C.ar    
  11 N11            6.4470     1.5782     1.1826 N.ar    
  12 C12            5.7853     2.7155     1.3038 C.ar    
  13 C13            4.4134     2.7562     1.1734 C.ar    
  14 N14           -1.2038    -0.6969     0.0404 N.pl3   
  15 C15           -2.4030     0.0072     0.1481 C.ar    
  16 C16            3.9622    -2.0550     0.3349 C.3     
  17 N17           -2.3921     1.2533     0.5930 N.ar    
  18 C18           -3.5020     1.9572     0.7113 C.ar    
  19 C19           -4.7291     1.4087     0.3703 C.ar    
  20 C20           -4.7800     0.0981    -0.1023 C.ar    
  21 C21           -3.5957    -0.6065    -0.2186 C.ar    
  22 N22           -5.9023     2.1615     0.4995 N.3     
  23 C23           -7.0118     1.3281     0.9684 C.3     
  24 C24            3.2255    -2.9486     1.3539 C.3     
  25 C25            3.5294    -2.5327    -1.0623 C.3     
  26 C26            2.5448    -3.6999    -0.8436 C.3     
  27 C27            1.9856    -3.4632     0.5813 C.3     
  28 C28           -6.2167     2.8616    -0.7481 C.3     
  29 C29           -7.2252     3.9824    -0.4770 C.3     
  30 S30           -8.7678     3.2417     0.1373 S.o2    
  31 C31           -8.1414     2.2151     1.5010 C.3     
  32 O32           -9.5832     4.2714     0.6795 O.2     
  33 O33           -9.2963     2.3892    -0.8692 O.2     
  34 H34            1.1095     2.9816     0.8790 H       
  35 H35            6.4296    -0.4704     0.8434 H       
  36 H36            6.3273     3.6269     1.5088 H       
  37 H37            3.8786     3.6892     1.2732 H       
  38 H38           -1.2134    -1.6382    -0.1936 H       
  39 H39            5.0404    -2.1665     0.4503 H       
  40 H40           -3.4542     2.9718     1.0782 H       
  41 H41           -5.7216    -0.3548    -0.3753 H       
  42 H42           -3.5981    -1.6237    -0.5815 H       
  43 H43           -7.3852     0.7237     0.1417 H       
  44 H44           -6.6604     0.6721     1.7649 H       
  45 H45            3.8585    -3.7822     1.6581 H       
  46 H46            2.9189    -2.3647     2.2218 H       
  47 H47            3.0347    -1.7221    -1.5974 H       
  48 H48            4.3974    -2.8768    -1.6247 H       
  49 H49            1.7415    -3.6644    -1.5795 H       
  50 H50            3.0679    -4.6549    -0.8943 H       
  51 H51            1.6209    -4.3953     1.0129 H       
  52 H52            1.1988    -2.7089     0.5671 H       
  53 H53           -5.3039     3.2886    -1.1636 H       
  54 H54           -6.6425     2.1563    -1.4617 H       
  55 H55           -6.8224     4.6633     0.2728 H       
  56 H56           -7.4233     4.5271    -1.4002 H       
  57 H57           -8.9461     1.5898     1.8875 H       
  58 H58           -7.7593     2.8561     2.2956 H       
@<TRIPOS>BOND
   1    1    2 ar
   2    1    6 ar
   3    2    3 ar
   4    2   14 1
   5    3    4 ar
   6    4    5 ar
   7    4    7 1
   8    5    6 ar
   9    5    9 1
  10    6   34 1
  11    7    8 1
  12    7   16 1
  13    8    9 ar
  14    8   10 ar
  15    9   13 ar
  16   10   11 ar
  17   10   35 1
  18   11   12 ar
  19   12   13 ar
  20   12   36 1
  21   13   37 1
  22   14   15 1
  23   14   38 1
  24   15   17 ar
  25   15   21 ar
  26   16   25 1
  27   16   24 1
  28   16   39 1
  29   17   18 ar
  30   18   19 ar
  31   18   40 1
  32   19   20 ar
  33   19   22 1
  34   20   21 ar
  35   20   41 1
  36   21   42 1
  37   22   23 1
  38   22   28 1
  39   23   31 1
  40   23   43 1
  41   23   44 1
  42   24   27 1
  43   24   45 1
  44   24   46 1
  45   25   26 1
  46   25   47 1
  47   25   48 1
  48   26   27 1
  49   26   49 1
  50   26   50 1
  51   27   51 1
  52   27   52 1
  53   28   29 1
  54   28   53 1
  55   28   54 1
  56   29   30 1
  57   29   55 1
  58   29   56 1
  59   30   31 1
  60   30   32 2
  61   30   33 2
  62   31   57 1
  63   31   58 1

#	End of record

