#	Name: ASD03090349
#	Creating user name:	WinNT
#	Creation time:	15. 06. 2019 20:28

#	Modifying user name:	WinNT
#	Modification time:	15. 06. 2019 20:28

#	Program:	/corina/corina34_cracker 3.40 0067  02.08.2006

@<TRIPOS>MOLECULE
ASD03090349
  52   56    0    0    0
SMALL
NO_CHARGES


@<TRIPOS>ATOM
   1 N1            -0.1751     1.0613    -0.6788 N.ar    
   2 C2             0.0692    -0.0171    -1.4068 C.ar    
   3 C3             1.2981    -0.6399    -1.3388 C.ar    
   4 C4             2.2828    -0.1192    -0.4913 C.ar    
   5 C5             1.9769     1.0214     0.2577 C.ar    
   6 C6             0.7230     1.5838     0.1308 C.ar    
   7 C7             3.6134    -0.7595    -0.3901 C.2     
   8 N8             5.7661    -3.5031     0.0474 N.pl3   
   9 C9             7.1573    -3.5882     0.1758 C.ar    
  10 C10            7.8658    -2.5464     0.7588 C.ar    
  11 C11            9.2424    -2.6313     0.8854 C.ar    
  12 C12            9.9132    -3.7626     0.4272 C.ar    
  13 C13            9.2027    -4.7999    -0.1547 C.ar    
  14 C14            7.8286    -4.7174    -0.2749 C.ar    
  15 N15            3.8434    -2.0407    -0.1847 N.2     
  16 C16            5.1581    -2.2622    -0.1515 C.2     
  17 N17            5.7888    -1.1248    -0.3355 N.2     
  18 N18            4.8068    -0.1342    -0.4980 N.pl3   
  19 C19            5.0313     1.2947    -0.7307 C.3     
  20 C20            5.0045     1.5728    -2.2115 C.2     
  21 N21            5.1896     2.8285    -2.6648 N.am    
  22 O22           10.1569    -1.7641     1.4100 O.3     
  23 C23           11.3426    -2.5479     1.6400 C.3     
  24 O24           11.2491    -3.6036     0.6653 O.3     
  25 F25           12.4905    -1.7783     1.4225 F       
  26 F26           11.3403    -3.0741     2.9363 F       
  27 O27            4.8163     0.6667    -2.9954 O.2     
  28 C28            5.1635     3.0989    -4.1044 C.3     
  29 C29            5.3980     4.5911    -4.3474 C.3     
  30 C30           -0.8223    -0.7578    -2.3824 C.3     
  31 C31            0.1340    -1.6302    -3.2229 C.3     
  32 C32            1.3230    -1.8382    -2.2605 C.3     
  33 H33            2.7088     1.4546     0.9232 H       
  34 H34            0.4744     2.4649     0.7037 H       
  35 H35            5.2245    -4.3063     0.0967 H       
  36 H36            7.3438    -1.6698     1.1132 H       
  37 H37            9.7232    -5.6768    -0.5102 H       
  38 H38            7.2771    -5.5275    -0.7289 H       
  39 H39            4.2475     1.8705    -0.2386 H       
  40 H40            6.0016     1.5809    -0.3248 H       
  41 H41            5.3401     3.5532    -2.0379 H       
  42 H42            5.9473     2.5230    -4.5965 H       
  43 H43            4.1932     2.8127    -4.5103 H       
  44 H44            4.6141     5.1669    -3.8553 H       
  45 H45            6.3683     4.8773    -3.9415 H       
  46 H46            5.3786     4.7923    -5.4185 H       
  47 H47           -1.5322    -1.3857    -1.8441 H       
  48 H48           -1.3509    -0.0515    -3.0227 H       
  49 H49           -0.3315    -2.5829    -3.4754 H       
  50 H50            0.4510    -1.1020    -4.1221 H       
  51 H51            2.2597    -1.8681    -2.8172 H       
  52 H52            1.1916    -2.7575    -1.6898 H       
@<TRIPOS>BOND
   1    1    2 ar
   2    1    6 ar
   3    2    3 ar
   4    2   30 1
   5    3    4 ar
   6    3   32 1
   7    4    5 ar
   8    4    7 1
   9    5    6 ar
  10    5   33 1
  11    6   34 1
  12    7   15 2
  13    7   18 1
  14    8    9 1
  15    8   16 1
  16    8   35 1
  17    9   10 ar
  18    9   14 ar
  19   10   11 ar
  20   10   36 1
  21   11   12 ar
  22   11   22 1
  23   12   13 ar
  24   12   24 1
  25   13   14 ar
  26   13   37 1
  27   14   38 1
  28   15   16 1
  29   16   17 2
  30   17   18 1
  31   18   19 1
  32   19   20 1
  33   19   39 1
  34   19   40 1
  35   20   21 am
  36   20   27 2
  37   21   28 1
  38   21   41 1
  39   22   23 1
  40   23   24 1
  41   23   25 1
  42   23   26 1
  43   28   29 1
  44   28   42 1
  45   28   43 1
  46   29   44 1
  47   29   45 1
  48   29   46 1
  49   30   31 1
  50   30   47 1
  51   30   48 1
  52   31   32 1
  53   31   49 1
  54   31   50 1
  55   32   51 1
  56   32   52 1

#	End of record

