#	Name: ASD06350009
#	Creating user name:	WinNT
#	Creation time:	15. 06. 2019 21:06

#	Modifying user name:	WinNT
#	Modification time:	15. 06. 2019 21:06

#	Program:	/corina/corina34_cracker 3.40 0067  02.08.2006

@<TRIPOS>MOLECULE
ASD06350009
  32   33    0    0    0
SMALL
NO_CHARGES


@<TRIPOS>ATOM
   1 C1            -0.0173     1.4248     0.0099 C.3     
   2 O2             0.0021    -0.0041     0.0020 O.3     
   3 C3             0.6059    -0.6072    -1.0559 C.ar    
   4 C4             0.6601    -1.9918    -1.1262 C.ar    
   5 C5             1.2732    -2.6064    -2.2003 C.ar    
   6 C6             1.8359    -1.8391    -3.2108 C.ar    
   7 C7             1.7818    -0.4507    -3.1407 C.ar    
   8 C8             1.1627     0.1622    -2.0675 C.ar    
   9 F9             2.3294     0.2977    -4.1231 F       
  10 N10            2.4586    -2.4625    -4.3008 N.am    
  11 C11            1.7276    -2.7703    -5.3998 C.2     
  12 C12            2.2945    -3.3745    -6.4759 C.2     
  13 C13            3.6520    -3.6913    -6.4661 C.2     
  14 C14            4.4106    -3.3776    -5.3385 C.2     
  15 C15            3.7746    -2.7412    -4.2415 C.2     
  16 O16            4.4155    -2.4562    -3.2446 O.2     
  17 C17            5.8441    -3.6953    -5.2898 C.2     
  18 O18            6.3793    -4.2365    -6.2379 O.2     
  19 O19            6.5662    -3.3868    -4.1938 O.3     
  20 C20            7.9769    -3.7300    -4.2157 C.3     
  21 H21            1.0053     1.8021     0.0021 H       
  22 H22           -0.5445     1.7859    -0.8732 H       
  23 H23           -0.5275     1.7763     0.9067 H       
  24 H24            0.2228    -2.5894    -0.3401 H       
  25 H25            1.3151    -3.6843    -2.2538 H       
  26 H26            1.1197     1.2399    -2.0122 H       
  27 H27            0.6747    -2.5308    -5.4200 H       
  28 H28            1.6923    -3.6103    -7.3409 H       
  29 H29            4.1091    -4.1724    -7.3182 H       
  30 H30            8.0869    -4.8067    -4.3454 H       
  31 H31            8.4639    -3.2128    -5.0424 H       
  32 H32            8.4389    -3.4282    -3.2757 H       
@<TRIPOS>BOND
   1    1    2 1
   2    1   21 1
   3    1   22 1
   4    1   23 1
   5    2    3 1
   6    3    4 ar
   7    3    8 ar
   8    4    5 ar
   9    4   24 1
  10    5    6 ar
  11    5   25 1
  12    6    7 ar
  13    6   10 1
  14    7    8 ar
  15    7    9 1
  16    8   26 1
  17   10   11 1
  18   10   15 am
  19   11   12 2
  20   11   27 1
  21   12   13 1
  22   12   28 1
  23   13   14 2
  24   13   29 1
  25   14   15 1
  26   14   17 1
  27   15   16 2
  28   17   18 2
  29   17   19 1
  30   19   20 1
  31   20   30 1
  32   20   31 1
  33   20   32 1

#	End of record

