#	Name: ASD01910951
#	Creating user name:	WinNT
#	Creation time:	15. 06. 2019 19:56

#	Modifying user name:	WinNT
#	Modification time:	15. 06. 2019 19:56

#	Program:	/corina/corina34_cracker 3.40 0067  02.08.2006

@<TRIPOS>MOLECULE
ASD01910951
  66   70    0    0    0
SMALL
NO_CHARGES


@<TRIPOS>ATOM
   1 N1            -0.2202     1.5596     0.0643 N.am    
   2 C2            -0.3768     0.1261     0.3476 C.3     
   3 C3            -1.2608    -0.0342     1.5906 C.3     
   4 N4            -2.4657     0.7896     1.4193 N.am    
   5 C5            -2.3092     2.2232     1.1360 C.3     
   6 C6            -1.4252     2.3845    -0.1015 C.3     
   7 C7            -3.6923     0.2402     1.5198 C.2     
   8 C8            -4.8932     1.1027     1.4936 C.ar    
   9 C9            -6.0592     0.6599     0.8652 C.ar    
  10 C10           -7.1821     1.4635     0.8393 C.ar    
  11 C11           -7.1613     2.7091     1.4335 C.ar    
  12 C12           -6.0008     3.1658     2.0660 C.ar    
  13 C13           -4.8655     2.3562     2.1008 C.ar    
  14 C14           -5.9799     4.4584     2.6818 C.1     
  15 O15           -3.8114    -0.9642     1.6319 O.2     
  16 C16           -5.9629     5.5182     3.1866 C.1     
  17 C17           -5.9420     6.8109     3.8024 C.ar    
  18 C18           -4.7881     7.2772     4.4370 C.ar    
  19 N19           -4.7698     8.4660     5.0031 N.ar    
  20 C20           -5.8250     9.2577     4.9960 C.ar    
  21 C21           -7.0062     8.8695     4.3888 C.ar    
  22 C22           -7.0771     7.6326     3.7738 C.ar    
  23 S23            1.2869     2.2347    -0.0591 S.o2    
  24 C24            1.6788     2.3254    -1.7746 C.ar    
  25 C25            1.7811     3.5352    -2.3898 C.ar    
  26 C26            2.0907     3.6263    -3.7453 C.ar    
  27 C27            2.2997     2.5076    -4.4928 C.ar    
  28 C28            2.2027     1.2427    -3.8925 C.ar    
  29 C29            1.8933     1.1490    -2.5134 C.ar    
  30 O30            1.1645     3.5753     0.3960 O.2     
  31 O31            2.1930     1.3001     0.5106 O.2     
  32 C32            2.4133     0.0609    -4.6355 C.ar    
  33 C33            2.3088    -1.1613    -4.0068 C.ar    
  34 C34            1.9989    -1.2405    -2.6522 C.ar    
  35 C35            1.7966    -0.1170    -1.9105 C.ar    
  36 N36            2.7235     0.1294    -5.9920 N.3     
  37 C37            4.0268    -0.4907    -6.2660 C.3     
  38 C38            1.6664    -0.4859    -6.8055 C.3     
  39 H39           -0.8490    -0.3655    -0.5030 H       
  40 H40            0.6007    -0.3189     0.5340 H       
  41 H41           -1.5459    -1.0801     1.7044 H       
  42 H42           -0.7139     0.2966     2.4735 H       
  43 H43           -3.2866     2.6681     0.9496 H       
  44 H44           -1.8370     2.7148     1.9866 H       
  45 H45           -1.1409     3.4308    -0.2141 H       
  46 H46           -1.9698     2.0537    -0.9858 H       
  47 H47           -6.0826    -0.3135     0.3978 H       
  48 H48           -8.0807     1.1157     0.3515 H       
  49 H49           -8.0430     3.3324     1.4096 H       
  50 H50           -3.9663     2.7035     2.5878 H       
  51 H51           -3.9040     6.6575     4.4639 H       
  52 H52           -5.7661    10.2251     5.4725 H       
  53 H53           -7.8627     9.5274     4.3911 H       
  54 H54           -7.9865     7.3045     3.2924 H       
  55 H55            1.6195     4.4377    -1.8190 H       
  56 H56            2.1656     4.5984    -4.2099 H       
  57 H57            2.5386     2.5931    -5.5426 H       
  58 H58            2.4688    -2.0678    -4.5717 H       
  59 H59            1.9222    -2.2091    -2.1806 H       
  60 H60            1.5573    -0.1985    -0.8605 H       
  61 H61            4.0010    -1.5382    -5.9658 H       
  62 H62            4.2442    -0.4235    -7.3320 H       
  63 H63            4.8021     0.0295    -5.7035 H       
  64 H64            0.7257     0.0377    -6.6353 H       
  65 H65            1.9339    -0.4188    -7.8601 H       
  66 H66            1.5551    -1.5333    -6.5249 H       
@<TRIPOS>BOND
   1    1    2 1
   2    1   23 am
   3    1    6 1
   4    2    3 1
   5    2   39 1
   6    2   40 1
   7    3    4 1
   8    3   41 1
   9    3   42 1
  10    4    5 1
  11    4    7 am
  12    5    6 1
  13    5   43 1
  14    5   44 1
  15    6   45 1
  16    6   46 1
  17    7    8 1
  18    7   15 2
  19    8    9 ar
  20    8   13 ar
  21    9   10 ar
  22    9   47 1
  23   10   11 ar
  24   10   48 1
  25   11   12 ar
  26   11   49 1
  27   12   13 ar
  28   12   14 1
  29   13   50 1
  30   14   16 3
  31   16   17 1
  32   17   18 ar
  33   17   22 ar
  34   18   19 ar
  35   18   51 1
  36   19   20 ar
  37   20   21 ar
  38   20   52 1
  39   21   22 ar
  40   21   53 1
  41   22   54 1
  42   23   30 2
  43   23   31 2
  44   23   24 1
  45   24   25 ar
  46   24   29 ar
  47   25   26 ar
  48   25   55 1
  49   26   27 ar
  50   26   56 1
  51   27   28 ar
  52   27   57 1
  53   28   29 ar
  54   28   32 ar
  55   29   35 ar
  56   32   33 ar
  57   32   36 1
  58   33   34 ar
  59   33   58 1
  60   34   35 ar
  61   34   59 1
  62   35   60 1
  63   36   37 1
  64   36   38 1
  65   37   61 1
  66   37   62 1
  67   37   63 1
  68   38   64 1
  69   38   65 1
  70   38   66 1

#	End of record

