#	Name: ASD05430214
#	Creating user name:	WinNT
#	Creation time:	15. 06. 2019 21:00

#	Modifying user name:	WinNT
#	Modification time:	15. 06. 2019 21:00

#	Program:	/corina/corina34_cracker 3.40 0067  02.08.2006

@<TRIPOS>MOLECULE
ASD05430214
  77   82    0    0    0
SMALL
NO_CHARGES


@<TRIPOS>ATOM
   1 C1             0.0612     1.2716     0.6222 C.ar    
   2 C2             0.0103     0.0743    -0.0907 C.ar    
   3 C3             1.1492    -0.4130    -0.7186 C.ar    
   4 C4             2.3351     0.2843    -0.6401 C.ar    
   5 C5             2.3939     1.4861     0.0732 C.ar    
   6 C6             1.2472     1.9766     0.7054 C.ar    
   7 C7             4.8661     0.0617     0.3637 C.3     
   8 C8             4.8304     1.5678     0.2222 C.2     
   9 C9             3.6597     2.2322     0.1587 C.2     
  10 C10            6.2189    -0.3630     0.9429 C.3     
  11 C11            6.9230     0.6675     1.8331 C.3     
  12 N12            7.1092     1.9014     1.0664 N.pl3   
  13 C13            6.1134     2.2842     0.1565 C.2     
  14 N14           -1.1938    -0.6397    -0.1735 N.pl3   
  15 C15           -2.0021    -0.9822     0.8627 C.2     
  16 C16           -1.7801    -1.1185    -1.3163 C.2     
  17 C17           -2.9162    -1.7374    -0.9419 C.2     
  18 N18           -3.0268    -1.6392     0.3911 N.2     
  19 C19           -3.8959    -2.4190    -1.8622 C.3     
  20 C20           -0.9324     2.9805     1.9438 C.3     
  21 O21           -1.0571     1.7484     1.2307 O.3     
  22 C22            6.3949    -1.8390     1.3063 C.3     
  23 C23            7.1031    -1.2637     0.0783 C.3     
  24 C24            8.2867     2.7496     1.2502 C.3     
  25 C25            8.7499     3.2567    -0.1203 C.3     
  26 N26            7.6010     3.7901    -0.8560 N.pl3   
  27 N27            6.3347     3.2092    -0.7250 N.2     
  28 C28            7.9327     3.9215     2.1290 C.ar    
  29 C29            8.9141     4.8136     2.5190 C.ar    
  30 C30            6.6258     4.1068     2.5399 C.ar    
  31 C31            6.2998     5.1816     3.3451 C.ar    
  32 C32            7.2828     6.0728     3.7407 C.ar    
  33 C33            8.5906     5.8889     3.3246 C.ar    
  34 F34            6.9653     7.1239     4.5278 F       
  35 C35            9.4073     1.9368     1.9016 C.3     
  36 C36            9.8544     0.8280     0.9469 C.3     
  37 S37           11.0610    -0.2386     1.7818 S.o2    
  38 C38           11.4430    -1.4543     0.4908 C.3     
  39 O39           12.2311     0.5228     2.0472 O.2     
  40 O40           10.4097    -0.9062     2.8539 O.2     
  41 C41            7.7798     4.9452    -1.7391 C.3     
  42 H42            1.1053    -1.3409    -1.2694 H       
  43 H43            3.2193    -0.0973    -1.1291 H       
  44 H44            1.2879     2.9042     1.2569 H       
  45 H45            4.0674    -0.2596     1.0322 H       
  46 H46            4.7289    -0.3987    -0.6147 H       
  47 H47            3.6503     3.3121     0.1706 H       
  48 H48            6.3102     0.8716     2.7111 H       
  49 H49            7.8933     0.2802     2.1437 H       
  50 H50           -1.8265    -0.7499     1.9027 H       
  51 H51           -1.4037    -1.0182    -2.3235 H       
  52 H52           -3.6165    -3.4660    -1.9791 H       
  53 H53           -4.8978    -2.3554    -1.4377 H       
  54 H54           -3.8818    -1.9283    -2.8354 H       
  55 H55           -1.8952     3.2468     2.3801 H       
  56 H56           -0.1928     2.8683     2.7365 H       
  57 H57           -0.6143     3.7662     1.2586 H       
  58 H58            7.0076    -2.0734     2.1768 H       
  59 H59            5.5488    -2.5042     1.1338 H       
  60 H60            6.7230    -1.5505    -0.9022 H       
  61 H61            8.1817    -1.1197     0.1408 H       
  62 H62            9.4919     4.0436     0.0151 H       
  63 H63            9.1911     2.4336    -0.6823 H       
  64 H64            9.9341     4.6700     2.1944 H       
  65 H65            5.8592     3.4115     2.2312 H       
  66 H66            5.2786     5.3266     3.6653 H       
  67 H67            9.3583     6.5832     3.6328 H       
  68 H68           10.2515     2.5912     2.1192 H       
  69 H69            9.0431     1.4934     2.8283 H       
  70 H70            8.9900     0.2347     0.6489 H       
  71 H71           10.3124     1.2722     0.0632 H       
  72 H72           11.8543    -0.9430    -0.3796 H       
  73 H73           12.1725    -2.1700     0.8700 H       
  74 H74           10.5318    -1.9805     0.2061 H       
  75 H75            8.0328     4.6003    -2.7417 H       
  76 H76            6.8552     5.5212    -1.7756 H       
  77 H77            8.5845     5.5735    -1.3572 H       
@<TRIPOS>BOND
   1    1    2 ar
   2    1    6 ar
   3    1   21 1
   4    2    3 ar
   5    2   14 1
   6    3    4 ar
   7    3   42 1
   8    4    5 ar
   9    4   43 1
  10    5    6 ar
  11    5    9 1
  12    6   44 1
  13    7    8 1
  14    7   10 1
  15    7   45 1
  16    7   46 1
  17    8    9 2
  18    8   13 1
  19    9   47 1
  20   10   11 1
  21   10   22 1
  22   10   23 1
  23   11   12 1
  24   11   48 1
  25   11   49 1
  26   12   13 1
  27   12   24 1
  28   13   27 2
  29   14   15 1
  30   14   16 1
  31   15   18 2
  32   15   50 1
  33   16   17 2
  34   16   51 1
  35   17   18 1
  36   17   19 1
  37   19   52 1
  38   19   53 1
  39   19   54 1
  40   20   21 1
  41   20   55 1
  42   20   56 1
  43   20   57 1
  44   22   23 1
  45   22   58 1
  46   22   59 1
  47   23   60 1
  48   23   61 1
  49   24   25 1
  50   24   28 1
  51   24   35 1
  52   25   26 1
  53   25   62 1
  54   25   63 1
  55   26   27 1
  56   26   41 1
  57   28   29 ar
  58   28   30 ar
  59   29   33 ar
  60   29   64 1
  61   30   31 ar
  62   30   65 1
  63   31   32 ar
  64   31   66 1
  65   32   33 ar
  66   32   34 1
  67   33   67 1
  68   35   36 1
  69   35   68 1
  70   35   69 1
  71   36   37 1
  72   36   70 1
  73   36   71 1
  74   37   38 1
  75   37   39 2
  76   37   40 2
  77   38   72 1
  78   38   73 1
  79   38   74 1
  80   41   75 1
  81   41   76 1
  82   41   77 1

#	End of record

