#	Name: ASD09116024
#	Creating user name:	WinNT
#	Creation time:	15. 06. 2019 21:20

#	Modifying user name:	WinNT
#	Modification time:	15. 06. 2019 21:20

#	Program:	/corina/corina34_cracker 3.40 0067  02.08.2006

@<TRIPOS>MOLECULE
ASD09116024
  79   86    0    0    0
SMALL
NO_CHARGES


@<TRIPOS>ATOM
   1 C1             0.0381     1.3820     0.3309 C.ar    
   2 C2             0.0452    -0.0090     0.2590 C.ar    
   3 C3            -1.1470    -0.6873     0.3338 C.ar    
   4 N4            -2.2687     0.0210     0.4736 N.ar    
   5 N5            -2.2784     1.3031     0.5405 N.ar    
   6 C6            -1.1640     2.0377     0.4807 C.ar    
   7 N7            -1.1838    -2.0813     0.2650 N.pl3   
   8 N8            -0.0866    -2.9454     0.1195 N.2     
   9 C9            -0.5619    -4.1677     0.1002 C.2     
  10 N10           -1.8934    -4.1198     0.2253 N.2     
  11 C11           -2.2837    -2.8676     0.3312 C.2     
  12 N12            0.1979    -5.3301    -0.0300 N.pl3   
  13 C13           -0.4173    -6.5842     0.0736 C.ar    
  14 C14            0.0952    -7.6762    -0.6108 C.ar    
  15 C15           -1.5487    -6.7514     0.8705 C.ar    
  16 C16           -2.1234    -8.0074     0.9433 C.ar    
  17 C17           -1.5575    -9.0545     0.2243 C.ar    
  18 N18           -0.4792    -8.8605    -0.5184 N.ar    
  19 N19           -3.5871    -2.4318     0.4753 N.pl3   
  20 N20           -2.1286   -10.3232     0.2909 N.3     
  21 C21           -3.5456   -10.2839    -0.0967 C.3     
  22 C22           -1.3846   -11.2799    -0.5401 C.3     
  23 C23           -1.9940   -12.6745    -0.3777 C.3     
  24 N24           -3.4110   -12.6352    -0.7654 N.3     
  25 C25           -4.1550   -11.6784     0.0657 C.3     
  26 C26           -4.0133   -13.9732    -0.6951 C.3     
  27 C27            1.4106     2.0003     0.2361 C.3     
  28 C28            2.2613     1.4084     1.3732 C.3     
  29 C29            2.2690    -0.1183     1.2950 C.3     
  30 C30            1.4243    -0.5996     0.1025 C.3     
  31 C31            2.0348     1.5336    -1.0905 C.3     
  32 C32            2.0430     0.0070    -1.1688 C.3     
  33 C33           -1.2207     3.5173     0.5622 C.ar    
  34 C34           -2.1006     4.2302    -0.2519 C.ar    
  35 C35           -2.1485     5.6086    -0.1711 C.ar    
  36 C36           -1.3259     6.2806     0.7142 C.ar    
  37 C37           -0.4510     5.5780     1.5237 C.ar    
  38 C38           -0.3989     4.2008     1.4568 C.ar    
  39 N39           -1.2770   -13.6258    -1.2372 N.3     
  40 C40           -5.5301   -13.8589    -0.8596 C.3     
  41 C41           -6.3327   -15.1594    -0.9328 C.3     
  42 C42           -6.4031   -14.2866     0.3219 C.3     
  43 Cl43          -3.1328     3.3875    -1.3646 Cl      
  44 H44            1.1523    -5.2699    -0.1923 H       
  45 H45            0.9741    -7.5558    -1.2267 H       
  46 H46           -1.9666    -5.9198     1.4184 H       
  47 H47           -3.0005    -8.1728     1.5514 H       
  48 H48           -4.3129    -3.0746     0.5057 H       
  49 H49           -3.7763    -1.4831     0.5461 H       
  50 H50           -4.0776    -9.5780     0.5410 H       
  51 H51           -3.6294    -9.9693    -1.1370 H       
  52 H52           -1.4439   -10.9767    -1.5854 H       
  53 H53           -0.3411   -11.3002    -0.2256 H       
  54 H54           -1.9102   -12.9891     0.6625 H       
  55 H55           -4.0957   -11.9817     1.1110 H       
  56 H56           -5.1985   -11.6581    -0.2488 H       
  57 H57           -3.6074   -14.5966    -1.4918 H       
  58 H58           -3.7855   -14.4239     0.2708 H       
  59 H59            1.3601     3.0869     0.3047 H       
  60 H60            3.2830     1.7787     1.2893 H       
  61 H61            1.8465     1.7180     2.3325 H       
  62 H62            3.2944    -0.4678     1.1747 H       
  63 H63            1.8574    -0.5285     2.2172 H       
  64 H64            1.3855    -1.6881     0.0594 H       
  65 H65            1.4550     1.9341    -1.9222 H       
  66 H66            3.0580     1.9034    -1.1572 H       
  67 H67            3.0700    -0.3431    -1.2723 H       
  68 H68            1.4673    -0.3124    -2.0375 H       
  69 H69           -2.8292     6.1622    -0.8008 H       
  70 H70           -1.3663     7.3582     0.7738 H       
  71 H71            0.1892     6.1086     2.2130 H       
  72 H72            0.2847     3.6540     2.0894 H       
  73 H73           -0.2994   -13.6695    -0.9913 H       
  74 H74           -1.7012   -14.5404    -1.1968 H       
  75 H75           -5.8756   -13.0196    -1.4633 H       
  76 H76           -7.2065   -15.1757    -1.5842 H       
  77 H77           -5.7801   -16.0964    -0.8637 H       
  78 H78           -5.8967   -14.6494     1.2164 H       
  79 H79           -7.3231   -13.7286     0.4959 H       
@<TRIPOS>BOND
   1    1    2 ar
   2    1   27 1
   3    1    6 ar
   4    2    3 ar
   5    2   30 1
   6    3    4 ar
   7    3    7 1
   8    4    5 ar
   9    5    6 ar
  10    6   33 1
  11    7    8 1
  12    7   11 1
  13    8    9 2
  14    9   10 1
  15    9   12 1
  16   10   11 2
  17   11   19 1
  18   12   13 1
  19   12   44 1
  20   13   14 ar
  21   13   15 ar
  22   14   18 ar
  23   14   45 1
  24   15   16 ar
  25   15   46 1
  26   16   17 ar
  27   16   47 1
  28   17   18 ar
  29   17   20 1
  30   19   48 1
  31   19   49 1
  32   20   21 1
  33   20   22 1
  34   21   25 1
  35   21   50 1
  36   21   51 1
  37   22   23 1
  38   22   52 1
  39   22   53 1
  40   23   24 1
  41   23   39 1
  42   23   54 1
  43   24   25 1
  44   24   26 1
  45   25   55 1
  46   25   56 1
  47   26   40 1
  48   26   57 1
  49   26   58 1
  50   27   28 1
  51   27   31 1
  52   27   59 1
  53   28   29 1
  54   28   60 1
  55   28   61 1
  56   29   30 1
  57   29   62 1
  58   29   63 1
  59   30   32 1
  60   30   64 1
  61   31   32 1
  62   31   65 1
  63   31   66 1
  64   32   67 1
  65   32   68 1
  66   33   34 ar
  67   33   38 ar
  68   34   35 ar
  69   34   43 1
  70   35   36 ar
  71   35   69 1
  72   36   37 ar
  73   36   70 1
  74   37   38 ar
  75   37   71 1
  76   38   72 1
  77   39   73 1
  78   39   74 1
  79   40   41 1
  80   40   42 1
  81   40   75 1
  82   41   42 1
  83   41   76 1
  84   41   77 1
  85   42   78 1
  86   42   79 1

#	End of record

