#	Name: ASD00192034
#	Creating user name:	WinNT
#	Creation time:	15. 06. 2019 18:33

#	Modifying user name:	WinNT
#	Modification time:	15. 06. 2019 18:33

#	Program:	/corina/corina34_cracker 3.40 0067  02.08.2006

@<TRIPOS>MOLECULE
ASD00192034
  20   22    0    0    0
SMALL
NO_CHARGES


@<TRIPOS>ATOM
   1 N1            -0.0157     1.3039     0.0092 N.ar    
   2 C2             0.0021    -0.0041     0.0020 C.ar    
   3 C3             1.2121    -0.7189    -0.0134 C.ar    
   4 C4             2.4215    -0.0122    -0.0211 C.ar    
   5 C5             2.3732     1.3981    -0.0135 C.ar    
   6 C6             3.5397     2.1730    -0.0203 C.ar    
   7 C7             3.4478     3.5334    -0.0123 C.ar    
   8 C8             2.2069     4.1623     0.0030 C.ar    
   9 C9             1.0531     3.4377     0.0100 C.ar    
  10 C10            1.1084     2.0351     0.0024 C.ar    
  11 C11            2.8220    -2.1750    -0.0359 C.2     
  12 N12            1.5273    -2.0375    -0.0230 N.2     
  13 N13            3.4173    -0.9514    -0.0353 N.pl3   
  14 H14           -0.9322    -0.5458     0.0084 H       
  15 H15            4.5081     1.6950    -0.0314 H       
  16 H16            4.3484     4.1294    -0.0175 H       
  17 H17            2.1574     5.2412     0.0099 H       
  18 H18            0.0979     3.9414     0.0220 H       
  19 H19            3.3454    -3.1196    -0.0459 H       
  20 H20            4.3714    -0.7769    -0.0436 H       
@<TRIPOS>BOND
   1    1    2 ar
   2    1   10 ar
   3    2    3 ar
   4    2   14 1
   5    3    4 ar
   6    3   12 1
   7    4    5 ar
   8    4   13 1
   9    5    6 ar
  10    5   10 ar
  11    6    7 ar
  12    6   15 1
  13    7    8 ar
  14    7   16 1
  15    8    9 ar
  16    8   17 1
  17    9   10 ar
  18    9   18 1
  19   11   12 2
  20   11   13 1
  21   11   19 1
  22   13   20 1

#	End of record

