#	Name: ASD08830233
#	Creating user name:	WinNT
#	Creation time:	15. 06. 2019 21:20

#	Modifying user name:	WinNT
#	Modification time:	15. 06. 2019 21:20

#	Program:	/corina/corina34_cracker 3.40 0067  02.08.2006

@<TRIPOS>MOLECULE
ASD08830233
  49   51    0    0    0
SMALL
NO_CHARGES


@<TRIPOS>ATOM
   1 C1            -1.4049     1.6493    -0.3446 C.ar    
   2 C2            -1.0827     0.2148    -0.3122 C.2     
   3 C3            -2.1725    -0.7970    -0.0679 C.3     
   4 O4             0.0600    -0.1539    -0.4821 O.2     
   5 C5            -2.7333     2.0729    -0.1409 C.ar    
   6 C6            -0.3975     2.5773    -0.5700 C.ar    
   7 C7            -0.7131     3.9434    -0.5989 C.ar    
   8 C8            -2.0556     4.3552    -0.3976 C.ar    
   9 C9            -3.0542     3.3904    -0.1659 C.ar    
  10 C10            0.2798     4.9138    -0.8239 C.ar    
  11 C11           -0.0594     6.2320    -0.8455 C.ar    
  12 C12           -1.3778     6.6360    -0.6473 C.ar    
  13 C13           -2.3655     5.7244    -0.4272 C.ar    
  14 C14           -1.5740    -2.2050    -0.0836 C.3     
  15 N15           -2.6518    -3.1965     0.0319 N.3     
  16 C16           -3.3450    -3.0767     1.3329 C.3     
  17 C17           -2.1104    -4.5789    -0.0127 C.3     
  18 C18           -3.2386    -5.4225     0.6322 C.3     
  19 C19           -3.7637    -4.4975     1.7542 C.3     
  20 C20           -1.8673    -5.0173    -1.4583 C.3     
  21 N21           -0.9235    -4.0915    -2.0986 N.3     
  22 C22            0.4507    -4.3427    -1.6440 C.3     
  23 C23           -1.0170    -4.1732    -3.5623 C.3     
  24 H24           -2.6325    -0.6085     0.9021 H       
  25 H25           -2.9271    -0.7142    -0.8501 H       
  26 H26           -3.5056     1.3392     0.0371 H       
  27 H27            0.6205     2.2501    -0.7215 H       
  28 H28           -4.0776     3.6994    -0.0124 H       
  29 H29            1.3060     4.6148    -0.9784 H       
  30 H30            0.7048     6.9754    -1.0185 H       
  31 H31           -1.6205     7.6881    -0.6690 H       
  32 H32           -3.3829     6.0533    -0.2753 H       
  33 H33           -1.0358    -2.3607    -1.0185 H       
  34 H34           -0.8862    -2.3168     0.7546 H       
  35 H35           -2.6694    -2.6530     2.0760 H       
  36 H36           -4.2274    -2.4457     1.2268 H       
  37 H37           -1.1933    -4.6519     0.5719 H       
  38 H38           -4.0246    -5.6339    -0.0928 H       
  39 H39           -2.8387    -6.3466     1.0497 H       
  40 H40           -3.3044    -4.7604     2.7071 H       
  41 H41           -4.8492    -4.5668     1.8246 H       
  42 H42           -1.4509    -6.0246    -1.4673 H       
  43 H43           -2.8109    -5.0092    -2.0039 H       
  44 H44            0.7429    -5.3575    -1.9139 H       
  45 H45            1.1263    -3.6315    -2.1193 H       
  46 H46            0.5024    -4.2254    -0.5616 H       
  47 H47           -2.0281    -3.9145    -3.8768 H       
  48 H48           -0.3078    -3.4777    -4.0111 H       
  49 H49           -0.7845    -5.1880    -3.8852 H       
@<TRIPOS>BOND
   1    1    2 1
   2    1    6 ar
   3    1    5 ar
   4    2    3 1
   5    2    4 2
   6    3   14 1
   7    3   24 1
   8    3   25 1
   9    5    9 ar
  10    5   26 1
  11    6    7 ar
  12    6   27 1
  13    7    8 ar
  14    7   10 ar
  15    8    9 ar
  16    8   13 ar
  17    9   28 1
  18   10   11 ar
  19   10   29 1
  20   11   12 ar
  21   11   30 1
  22   12   13 ar
  23   12   31 1
  24   13   32 1
  25   14   15 1
  26   14   33 1
  27   14   34 1
  28   15   16 1
  29   15   17 1
  30   16   19 1
  31   16   35 1
  32   16   36 1
  33   17   18 1
  34   17   20 1
  35   17   37 1
  36   18   19 1
  37   18   38 1
  38   18   39 1
  39   19   40 1
  40   19   41 1
  41   20   21 1
  42   20   42 1
  43   20   43 1
  44   21   22 1
  45   21   23 1
  46   22   44 1
  47   22   45 1
  48   22   46 1
  49   23   47 1
  50   23   48 1
  51   23   49 1

#	End of record

