#	Name: ASD01917438
#	Creating user name:	WinNT
#	Creation time:	15. 06. 2019 20:09

#	Modifying user name:	WinNT
#	Modification time:	15. 06. 2019 20:09

#	Program:	/corina/corina34_cracker 3.40 0067  02.08.2006

@<TRIPOS>MOLECULE
ASD01917438
  44   48    0    0    0
SMALL
NO_CHARGES


@<TRIPOS>ATOM
   1 C1            -0.0171     1.4094     0.0098 C.ar    
   2 C2             0.0021    -0.0041     0.0020 C.ar    
   3 C3            -1.1922    -0.7247     0.0119 C.ar    
   4 C4            -2.3850    -0.0621     0.0280 C.ar    
   5 C5            -2.4216     1.3392     0.0339 C.ar    
   6 C6            -1.2415     2.0760     0.0308 C.ar    
   7 N7             1.1591     2.0795     0.0022 N.2     
   8 C8             2.3138     1.4686    -0.0138 C.2     
   9 N9             2.4216     0.1126    -0.0277 N.am    
  10 C10            1.3109    -0.6683    -0.0177 C.2     
  11 O11            1.3979    -1.8826    -0.0244 O.2     
  12 C12           -3.7226     2.0385     0.0496 C.2     
  13 N13           -3.9060     3.3402     0.0561 N.2     
  14 N14           -5.1674     3.5933     0.0699 N.2     
  15 C15           -5.8388     2.4636     0.0727 C.2     
  16 O16           -4.9397     1.4591     0.0540 O.3     
  17 C17           -7.3094     2.3205     0.0848 C.ar    
  18 N18           -7.8539     1.1087     0.0773 N.ar    
  19 C19           -9.1596     0.9390     0.0876 C.ar    
  20 C20          -10.0174     2.0243     0.1067 C.ar    
  21 C21           -9.4913     3.3086     0.1150 C.ar    
  22 C22           -8.1158     3.4593     0.1097 C.ar    
  23 C23            3.7021     2.0880    -0.0184 C.3     
  24 C24            4.6395     0.9328     0.3938 C.3     
  25 C25            3.8341    -0.3040    -0.0546 C.3     
  26 C26            5.9728     1.0173    -0.3519 C.3     
  27 C27            4.8614     0.9218     1.9076 C.3     
  28 H28           -1.1728    -1.8045     0.0065 H       
  29 H29           -3.3085    -0.6220     0.0358 H       
  30 H30           -1.2736     3.1555     0.0360 H       
  31 H31           -9.5666    -0.0614     0.0807 H       
  32 H32          -11.0868     1.8734     0.1146 H       
  33 H33          -10.1411     4.1712     0.1296 H       
  34 H34           -7.6726     4.4442     0.1163 H       
  35 H35            3.9558     2.4466    -1.0159 H       
  36 H36            3.7587     2.9010     0.7054 H       
  37 H37            3.9964    -1.1305     0.6371 H       
  38 H38            4.1219    -0.5951    -1.0648 H       
  39 H39            6.4723     1.9524    -0.0983 H       
  40 H40            6.6048     0.1777    -0.0626 H       
  41 H41            5.7912     0.9822    -1.4261 H       
  42 H42            3.9019     0.8198     2.4147 H       
  43 H43            5.5044     0.0831     2.1745 H       
  44 H44            5.3359     1.8547     2.2121 H       
@<TRIPOS>BOND
   1    1    2 ar
   2    1    7 1
   3    1    6 ar
   4    2    3 ar
   5    2   10 1
   6    3    4 ar
   7    3   28 1
   8    4    5 ar
   9    4   29 1
  10    5    6 ar
  11    5   12 1
  12    6   30 1
  13    7    8 2
  14    8    9 1
  15    8   23 1
  16    9   10 am
  17    9   25 1
  18   10   11 2
  19   12   13 2
  20   12   16 1
  21   13   14 1
  22   14   15 2
  23   15   16 1
  24   15   17 1
  25   17   18 ar
  26   17   22 ar
  27   18   19 ar
  28   19   20 ar
  29   19   31 1
  30   20   21 ar
  31   20   32 1
  32   21   22 ar
  33   21   33 1
  34   22   34 1
  35   23   24 1
  36   23   35 1
  37   23   36 1
  38   24   25 1
  39   24   26 1
  40   24   27 1
  41   25   37 1
  42   25   38 1
  43   26   39 1
  44   26   40 1
  45   26   41 1
  46   27   42 1
  47   27   43 1
  48   27   44 1

#	End of record

