#	Name: ASD01940023
#	Creating user name:	WinNT
#	Creation time:	15. 06. 2019 20:11

#	Modifying user name:	WinNT
#	Modification time:	15. 06. 2019 20:11

#	Program:	/corina/corina34_cracker 3.40 0067  02.08.2006

@<TRIPOS>MOLECULE
ASD01940023
  47   49    0    0    0
SMALL
NO_CHARGES


@<TRIPOS>ATOM
   1 C1            -0.1652     1.1874    -0.0599 C.ar    
   2 C2            -0.1621    -0.0648    -0.6608 C.ar    
   3 C3            -1.2722    -0.8800    -0.5627 C.ar    
   4 C4            -2.3906    -0.4486     0.1360 C.ar    
   5 C5            -2.3945     0.8022     0.7365 C.ar    
   6 C6            -1.2831     1.6163     0.6442 C.ar    
   7 N7             0.9594     2.0143    -0.1590 N.pl3   
   8 C8             0.8036     3.3856    -0.2527 C.2     
   9 C9             1.8021     4.3489    -0.2305 C.2     
  10 C10            1.3219     5.6544    -0.3461 C.2     
  11 N11            0.0363     5.7986    -0.4569 N.2     
  12 S12           -0.6682     4.2578    -0.4291 S.3     
  13 O13            2.1599     6.7234    -0.3425 O.3     
  14 C14            3.2317     4.0249    -0.0972 C.2     
  15 N15            3.8068     3.9440     1.1540 N.pl3   
  16 N16            3.9563     3.8139    -1.1642 N.2     
  17 C17            5.2297     3.6215     1.2867 C.3     
  18 C18            6.0575     4.9009     1.1501 C.3     
  19 C19            5.4844     2.9932     2.6583 C.3     
  20 O20            5.2181     3.9560     3.6801 O.3     
  21 O21           -3.4835    -1.2517     0.2318 O.3     
  22 C22           -3.3711    -2.3989     0.9517 C.ar    
  23 C23           -4.4160    -3.3130     0.9709 C.ar    
  24 C24           -4.2993    -4.4793     1.7041 C.ar    
  25 C25           -3.1436    -4.7356     2.4180 C.ar    
  26 C26           -2.1007    -3.8259     2.4008 C.ar    
  27 C27           -2.2099    -2.6612     1.6639 C.ar    
  28 Cl28          -5.8682    -2.9914     0.0757 Cl      
  29 Cl29          -0.6512    -4.1512     3.2991 Cl      
  30 H30            0.7082    -0.4006    -1.2050 H       
  31 H31           -1.2701    -1.8536    -1.0302 H       
  32 H32           -3.2655     1.1373     1.2802 H       
  33 H33           -1.2861     2.5897     1.1120 H       
  34 H34            1.8482     1.6258    -0.1619 H       
  35 H35            2.4727     6.9809    -1.2205 H       
  36 H36            3.2690     4.1005     1.9460 H       
  37 H37            4.8984     3.6004    -1.0764 H       
  38 H38            5.5171     2.9177     0.5056 H       
  39 H39            5.7700     5.6048     1.9312 H       
  40 H40            7.1161     4.6610     1.2489 H       
  41 H41            5.8760     5.3486     0.1730 H       
  42 H42            4.8295     2.1321     2.7908 H       
  43 H43            6.5241     2.6723     2.7235 H       
  44 H44            5.3590     3.6258     4.5780 H       
  45 H45           -5.1118    -5.1906     1.7194 H       
  46 H46           -3.0545    -5.6471     2.9903 H       
  47 H47           -1.3958    -1.9518     1.6505 H       
@<TRIPOS>BOND
   1    1    2 ar
   2    1    7 1
   3    1    6 ar
   4    2    3 ar
   5    2   30 1
   6    3    4 ar
   7    3   31 1
   8    4    5 ar
   9    4   21 1
  10    5    6 ar
  11    5   32 1
  12    6   33 1
  13    7    8 1
  14    7   34 1
  15    8    9 2
  16    8   12 1
  17    9   10 1
  18    9   14 1
  19   10   11 2
  20   10   13 1
  21   11   12 1
  22   13   35 1
  23   14   15 1
  24   14   16 2
  25   15   17 1
  26   15   36 1
  27   16   37 1
  28   17   18 1
  29   17   19 1
  30   17   38 1
  31   18   39 1
  32   18   40 1
  33   18   41 1
  34   19   20 1
  35   19   42 1
  36   19   43 1
  37   20   44 1
  38   21   22 1
  39   22   23 ar
  40   22   27 ar
  41   23   24 ar
  42   23   28 1
  43   24   25 ar
  44   24   45 1
  45   25   26 ar
  46   25   46 1
  47   26   27 ar
  48   26   29 1
  49   27   47 1

#	End of record

