#	Name: ASD05503018
#	Creating user name:	WinNT
#	Creation time:	15. 06. 2019 21:01

#	Modifying user name:	WinNT
#	Modification time:	15. 06. 2019 21:01

#	Program:	/corina/corina34_cracker 3.40 0067  02.08.2006

@<TRIPOS>MOLECULE
ASD05503018
  46   47    0    0    0
SMALL
NO_CHARGES


@<TRIPOS>ATOM
   1 C1            -0.8144    -0.4806     1.8558 C.2     
   2 C2            -0.4687    -1.9169     1.9088 C.ar    
   3 C3            -1.0163    -2.7325     2.8995 C.ar    
   4 C4            -0.6875    -4.0781     2.9428 C.ar    
   5 C5             0.1855    -4.6109     2.0015 C.ar    
   6 C6             0.7281    -3.8030     1.0200 C.ar    
   7 C7             0.4022    -2.4630     0.9644 C.ar    
   8 O8            -1.5769    -0.0082     2.6762 O.2     
   9 N9            -0.2797     0.3063     0.9011 N.am    
  10 C10           -0.6870     1.6391     0.7845 C.ar    
  11 C11           -1.9943     1.9949     1.0856 C.ar    
  12 C12           -2.3942     3.3181     0.9690 C.ar    
  13 C13           -1.4855     4.2828     0.5515 C.ar    
  14 C14           -0.1852     3.9254     0.2520 C.ar    
  15 C15            0.2180     2.6093     0.3726 C.ar    
  16 C16           -3.9655     4.8652     1.8621 C.2     
  17 C17           -5.3707     5.2116     2.2821 C.3     
  18 C18           -5.3838     6.6011     2.9224 C.3     
  19 C19           -6.8104     6.9528     3.3488 C.3     
  20 O20           -3.0632     5.6523     2.0559 O.2     
  21 N21           -3.7114     3.6808     1.2712 N.am    
  22 C22           -2.5007    -4.7032     4.3510 C.2     
  23 C23           -3.1243    -5.6516     5.3422 C.3     
  24 O24           -3.1386    -3.7623     3.9280 O.2     
  25 N25           -1.2342    -4.9005     3.9345 N.am    
  26 H26           -1.6939    -2.3165     3.6304 H       
  27 H27            0.4410    -5.6596     2.0374 H       
  28 H28            1.4061    -4.2227     0.2916 H       
  29 H29            0.8247    -1.8360     0.1933 H       
  30 H30            0.3876    -0.0517     0.2950 H       
  31 H31           -2.6988     1.2432     1.4096 H       
  32 H32           -1.7963     5.3131     0.4606 H       
  33 H33            0.5190     4.6771    -0.0727 H       
  34 H34            1.2366     2.3338     0.1424 H       
  35 H35           -6.0224     5.2080     1.4084 H       
  36 H36           -5.7262     4.4758     3.0035 H       
  37 H37           -4.7321     6.6047     3.7962 H       
  38 H38           -5.0283     7.3369     2.2011 H       
  39 H39           -6.8197     7.9427     3.8050 H       
  40 H40           -7.4621     6.9492     2.4751 H       
  41 H41           -7.1659     6.2170     4.0702 H       
  42 H42           -4.4416     3.0799     1.0555 H       
  43 H43           -3.6197    -6.4621     4.8075 H       
  44 H44           -2.3491    -6.0632     5.9885 H       
  45 H45           -3.8553    -5.1156     5.9476 H       
  46 H46           -0.7015    -5.6124     4.3222 H       
@<TRIPOS>BOND
   1    1    2 1
   2    1    8 2
   3    1    9 am
   4    2    3 ar
   5    2    7 ar
   6    3    4 ar
   7    3   26 1
   8    4    5 ar
   9    4   25 1
  10    5    6 ar
  11    5   27 1
  12    6    7 ar
  13    6   28 1
  14    7   29 1
  15    9   10 1
  16    9   30 1
  17   10   11 ar
  18   10   15 ar
  19   11   12 ar
  20   11   31 1
  21   12   13 ar
  22   12   21 1
  23   13   14 ar
  24   13   32 1
  25   14   15 ar
  26   14   33 1
  27   15   34 1
  28   16   17 1
  29   16   20 2
  30   16   21 am
  31   17   18 1
  32   17   35 1
  33   17   36 1
  34   18   19 1
  35   18   37 1
  36   18   38 1
  37   19   39 1
  38   19   40 1
  39   19   41 1
  40   21   42 1
  41   22   23 1
  42   22   24 2
  43   22   25 am
  44   23   43 1
  45   23   44 1
  46   23   45 1
  47   25   46 1

#	End of record

