#	Name: ASD01916916
#	Creating user name:	WinNT
#	Creation time:	15. 06. 2019 20:08

#	Modifying user name:	WinNT
#	Modification time:	15. 06. 2019 20:08

#	Program:	/corina/corina34_cracker 3.40 0067  02.08.2006

@<TRIPOS>MOLECULE
ASD01916916
  55   59    0    0    0
SMALL
NO_CHARGES


@<TRIPOS>ATOM
   1 C1            -0.0114     1.3717     0.1486 C.ar    
   2 C2             0.0120     0.0151     0.4142 C.ar    
   3 C3             1.2207    -0.6450     0.5664 C.ar    
   4 C4             2.4093     0.0516     0.4530 C.ar    
   5 C5             2.3890     1.4186     0.1854 C.ar    
   6 C6             1.1703     2.0762     0.0336 C.ar    
   7 C7             3.6618     2.1722     0.0629 C.2     
   8 N8             4.8878     1.6524     0.1880 N.2     
   9 N9             3.7670     3.4587    -0.1918 N.2     
  10 N10            5.1387     3.7583    -0.2213 N.pl3   
  11 C11            5.7893     2.5966     0.0212 C.2     
  12 C12            7.2571     2.4192     0.0873 C.ar    
  13 C13            5.7454     5.0684    -0.4697 C.3     
  14 C14            5.8773     5.8158     0.8323 C.2     
  15 O15            5.5015     5.3045     1.8658 O.2     
  16 N16            6.4129     7.0525     0.8481 N.am    
  17 C17            6.5508     7.7994     2.1076 C.3     
  18 C18            7.9958     8.2963     2.2231 C.3     
  19 N19            8.3495     9.0494     1.0125 N.3     
  20 C20            8.3071     8.1922    -0.1798 C.3     
  21 C21            6.8805     7.6886    -0.3929 C.3     
  22 C22            9.5887     9.6511     1.1469 C.ar    
  23 N23           10.0685    10.3742     0.1458 N.ar    
  24 N24           10.2645     9.4946     2.2758 N.ar    
  25 C25           11.2492    10.9629     0.2421 C.ar    
  26 C26           11.9851    10.8156     1.4074 C.ar    
  27 C27           11.4511    10.0565     2.4368 C.ar    
  28 C28            7.8168     1.1521    -0.0730 C.ar    
  29 C29            9.1885     0.9933    -0.0106 C.ar    
  30 C30           10.0052     2.0901     0.2110 C.ar    
  31 C31            9.4538     3.3486     0.3709 C.ar    
  32 C32            8.0864     3.5199     0.3044 C.ar    
  33 F33            9.7334    -0.2332    -0.1655 F       
  34 F34            1.2377    -1.9706     0.8263 F       
  35 H35           -0.9561     1.8806     0.0265 H       
  36 H36           -0.9150    -0.5319     0.5038 H       
  37 H37            3.3515    -0.4627     0.5719 H       
  38 H38            1.1499     3.1358    -0.1743 H       
  39 H39            6.7321     4.9337    -0.9129 H       
  40 H40            5.1148     5.6373    -1.1529 H       
  41 H41            5.8700     8.6506     2.1050 H       
  42 H42            6.3203     7.1451     2.9484 H       
  43 H43            8.0891     8.9441     3.0947 H       
  44 H44            8.6662     7.4435     2.3299 H       
  45 H45            8.6261     8.7646    -1.0508 H       
  46 H46            8.9732     7.3409    -0.0395 H       
  47 H47            6.8660     6.9629    -1.2061 H       
  48 H48            6.2284     8.5276    -0.6355 H       
  49 H49           11.6352    11.5508    -0.5775 H       
  50 H50           12.9519    11.2853     1.5124 H       
  51 H51           11.9988     9.9224     3.3579 H       
  52 H52            7.1801     0.2968    -0.2450 H       
  53 H53           11.0765     1.9621     0.2594 H       
  54 H54           10.0955     4.1999     0.5441 H       
  55 H55            7.6580     4.5034     0.4291 H       
@<TRIPOS>BOND
   1    1    2 ar
   2    1    6 ar
   3    1   35 1
   4    2    3 ar
   5    2   36 1
   6    3    4 ar
   7    3   34 1
   8    4    5 ar
   9    4   37 1
  10    5    6 ar
  11    5    7 1
  12    6   38 1
  13    7    8 1
  14    7    9 2
  15    8   11 2
  16    9   10 1
  17   10   11 1
  18   10   13 1
  19   11   12 1
  20   12   28 ar
  21   12   32 ar
  22   13   14 1
  23   13   39 1
  24   13   40 1
  25   14   15 2
  26   14   16 am
  27   16   17 1
  28   16   21 1
  29   17   18 1
  30   17   41 1
  31   17   42 1
  32   18   19 1
  33   18   43 1
  34   18   44 1
  35   19   20 1
  36   19   22 1
  37   20   21 1
  38   20   45 1
  39   20   46 1
  40   21   47 1
  41   21   48 1
  42   22   23 ar
  43   22   24 ar
  44   23   25 ar
  45   24   27 ar
  46   25   26 ar
  47   25   49 1
  48   26   27 ar
  49   26   50 1
  50   27   51 1
  51   28   29 ar
  52   28   52 1
  53   29   30 ar
  54   29   33 1
  55   30   31 ar
  56   30   53 1
  57   31   32 ar
  58   31   54 1
  59   32   55 1

#	End of record

