#	Name: ASD01231330
#	Creating user name:	WinNT
#	Creation time:	15. 06. 2019 19:15

#	Modifying user name:	WinNT
#	Modification time:	15. 06. 2019 19:15

#	Program:	/corina/corina34_cracker 3.40 0067  02.08.2006

@<TRIPOS>MOLECULE
ASD01231330
  52   54    0    0    0
SMALL
NO_CHARGES


@<TRIPOS>ATOM
   1 C1            -0.2308    -0.5160     0.9488 C.3     
   2 C2            -0.9973    -1.6921     0.3404 C.3     
   3 C3            -1.1316    -2.8061     1.3806 C.3     
   4 S4            -2.6478    -1.1391    -0.1699 S.o2    
   5 O5            -3.2976    -2.1467    -0.9326 O.2     
   6 O6            -3.3123    -0.4926     0.9071 O.2     
   7 N7            -2.3587     0.0746    -1.2588 N.am    
   8 C8            -1.6986    -0.2253    -2.5318 C.3     
   9 C9            -2.7491    -0.4468    -3.6407 C.3     
  10 C10           -2.8889     0.9640    -4.2510 C.3     
  11 C11           -1.5650     1.6458    -3.9800 C.ar    
  12 C12           -1.0031     2.7749    -4.5524 C.ar    
  13 C13            0.2374     3.2195    -4.1394 C.ar    
  14 C14            0.9215     2.5360    -3.1514 C.ar    
  15 C15            0.3630     1.4099    -2.5794 C.ar    
  16 C16           -0.8810     0.9625    -2.9922 C.ar    
  17 C17            0.8451     4.4482    -4.7655 C.3     
  18 C18            0.4280     5.6682    -3.9853 C.ar    
  19 C19            1.1999     6.1087    -2.9262 C.ar    
  20 C20            0.8173     7.2275    -2.2106 C.ar    
  21 C21           -0.3370     7.9065    -2.5540 C.ar    
  22 C22           -1.1082     7.4666    -3.6133 C.ar    
  23 C23           -0.7232     6.3500    -4.3319 C.ar    
  24 S24            1.8005     7.7882    -0.8601 S.o2    
  25 O25            0.8837     8.4785    -0.0221 O.2     
  26 O26            2.4714     6.6206    -0.4065 O.2     
  27 C27            2.9773     8.9486    -1.6080 C.3     
  28 H28            0.7610    -0.8483     1.2555 H       
  29 H29           -0.1351     0.2776     0.2078 H       
  30 H30           -0.7723    -0.1394     1.8167 H       
  31 H31           -0.4558    -2.0687    -0.5274 H       
  32 H32           -1.6731    -2.4295     2.2484 H       
  33 H33           -1.6777    -3.6440     0.9472 H       
  34 H34           -0.1398    -3.1384     1.6872 H       
  35 H35           -2.6263     0.9841    -1.0537 H       
  36 H36           -1.0646    -1.1061    -2.4301 H       
  37 H37           -2.3845    -1.1560    -4.3837 H       
  38 H38           -3.6959    -0.7809    -3.2163 H       
  39 H39           -3.0666     0.8959    -5.3242 H       
  40 H40           -3.7002     1.5071    -3.7662 H       
  41 H41           -1.5368     3.3091    -5.3245 H       
  42 H42            1.8919     2.8821    -2.8275 H       
  43 H43            0.8980     0.8765    -1.8076 H       
  44 H44            1.9317     4.3629    -4.7530 H       
  45 H45            0.4997     4.5400    -5.7953 H       
  46 H46            2.1016     5.5783    -2.6579 H       
  47 H47           -0.6364     8.7803    -1.9944 H       
  48 H48           -2.0101     7.9968    -3.8814 H       
  49 H49           -1.3238     6.0085    -5.1620 H       
  50 H50            2.4316     9.7652    -2.0808 H       
  51 H51            3.6333     9.3493    -0.8353 H       
  52 H52            3.5739     8.4284    -2.3574 H       
@<TRIPOS>BOND
   1    1    2 1
   2    1   28 1
   3    1   29 1
   4    1   30 1
   5    2    3 1
   6    2    4 1
   7    2   31 1
   8    3   32 1
   9    3   33 1
  10    3   34 1
  11    4    5 2
  12    4    6 2
  13    4    7 am
  14    7    8 1
  15    7   35 1
  16    8    9 1
  17    8   16 1
  18    8   36 1
  19    9   10 1
  20    9   37 1
  21    9   38 1
  22   10   11 1
  23   10   39 1
  24   10   40 1
  25   11   12 ar
  26   11   16 ar
  27   12   13 ar
  28   12   41 1
  29   13   14 ar
  30   13   17 1
  31   14   15 ar
  32   14   42 1
  33   15   16 ar
  34   15   43 1
  35   17   18 1
  36   17   44 1
  37   17   45 1
  38   18   19 ar
  39   18   23 ar
  40   19   20 ar
  41   19   46 1
  42   20   21 ar
  43   20   24 1
  44   21   22 ar
  45   21   47 1
  46   22   23 ar
  47   22   48 1
  48   23   49 1
  49   24   25 2
  50   24   26 2
  51   24   27 1
  52   27   50 1
  53   27   51 1
  54   27   52 1

#	End of record

