#	Name: ASD04122045
#	Creating user name:	WinNT
#	Creation time:	15. 06. 2019 20:48

#	Modifying user name:	WinNT
#	Modification time:	15. 06. 2019 20:48

#	Program:	/corina/corina34_cracker 3.40 0067  02.08.2006

@<TRIPOS>MOLECULE
ASD04122045
  72   77    0    0    0
SMALL
NO_CHARGES


@<TRIPOS>ATOM
   1 C1            -1.7224    -0.4386    -1.0737 C.ar    
   2 C2            -2.8081    -0.9318    -1.8043 C.ar    
   3 N3            -4.0539    -0.2871    -1.8246 N.pl3   
   4 C4            -4.3473     1.0503    -1.7377 C.2     
   5 C5            -3.4908     2.1409    -1.4552 C.2     
   6 C6            -2.0642     1.9264    -1.1023 C.3     
   7 O7            -1.8488     0.7213    -0.4112 O.3     
   8 C8            -5.2262    -0.9704    -1.9848 C.2     
   9 C9            -6.2473    -0.0867    -2.0749 C.2     
  10 C10           -5.7181     1.1938    -1.9306 C.2     
  11 C11           -0.5240    -1.1339    -1.0625 C.ar    
  12 C12           -0.3906    -2.3057    -1.7818 C.ar    
  13 C13           -1.4570    -2.7891    -2.5178 C.ar    
  14 C14           -2.6571    -2.1085    -2.5299 C.ar    
  15 C15           -1.2464     1.9136    -2.3680 C.ar    
  16 C16            0.0688     1.4892    -2.3369 C.ar    
  17 C17            0.8190     1.4774    -3.4979 C.ar    
  18 C18            0.2539     1.8898    -4.6902 C.ar    
  19 C19           -1.0616     2.3134    -4.7215 C.ar    
  20 C20           -1.8131     2.3210    -3.5612 C.ar    
  21 O21           -3.9300     3.2722    -1.5025 O.2     
  22 C22           -1.5956     3.0889    -0.2248 C.3     
  23 C23           -2.3892     3.0926     1.0833 C.3     
  24 C24            1.0720     1.8779    -5.9557 C.3     
  25 O25            0.9304     0.6116    -6.6026 O.3     
  26 C26            1.6089     0.4342    -7.7667 C.ar    
  27 C27            2.3947     1.4576    -8.2757 C.ar    
  28 C28            3.0835     1.2747    -9.4593 C.ar    
  29 C29            2.9901     0.0730   -10.1363 C.ar    
  30 C30            2.2069    -0.9487    -9.6311 C.ar    
  31 C31            1.5213    -0.7730    -8.4450 C.ar    
  32 C32            2.1069    -2.2573   -10.3719 C.3     
  33 C33            3.2059    -3.2040    -9.8854 C.3     
  34 N34            3.1084    -4.4796   -10.6075 N.3     
  35 C35            4.2851    -5.3277   -10.3431 C.3     
  36 C36            3.7660    -6.6662    -9.7770 C.3     
  37 C37            2.3005    -6.7151   -10.2839 C.3     
  38 C38            1.8937    -5.2223   -10.2093 C.3     
  39 H39           -5.3226    -2.0450    -2.0323 H       
  40 H40           -7.2877    -0.3309    -2.2307 H       
  41 H41           -6.2680     2.1228    -1.9619 H       
  42 H42            0.3102    -0.7576    -0.4889 H       
  43 H43            0.5458    -2.8436    -1.7696 H       
  44 H44           -1.3500    -3.7019    -3.0850 H       
  45 H45           -3.4852    -2.4924    -3.1071 H       
  46 H46            0.5104     1.1670    -1.4054 H       
  47 H47            1.8468     1.1465    -3.4734 H       
  48 H48           -1.5031     2.6358    -5.6529 H       
  49 H49           -2.8409     2.6519    -3.5857 H       
  50 H50           -0.5341     2.9737    -0.0055 H       
  51 H51           -1.7579     4.0297    -0.7509 H       
  52 H52           -3.4506     3.2079     0.8640 H       
  53 H53           -2.2269     2.1519     1.6094 H       
  54 H54           -2.0553     3.9208     1.7084 H       
  55 H55            0.7228     2.6671    -6.6215 H       
  56 H56            2.1210     2.0460    -5.7118 H       
  57 H57            2.4678     2.3968    -7.7474 H       
  58 H58            3.6952     2.0714    -9.8563 H       
  59 H59            3.5293    -0.0680   -11.0614 H       
  60 H60            0.9101    -1.5714    -8.0507 H       
  61 H61            1.1315    -2.7066   -10.1855 H       
  62 H62            2.2269    -2.0799   -11.4406 H       
  63 H63            4.1813    -2.7546   -10.0718 H       
  64 H64            3.0859    -3.3814    -8.8167 H       
  65 H65            4.8311    -5.5039   -11.2699 H       
  66 H66            4.9347    -4.8438    -9.6138 H       
  67 H67            4.3400    -7.5022   -10.1766 H       
  68 H68            3.7970    -6.6618    -8.6875 H       
  69 H69            2.2540    -7.0817   -11.3093 H       
  70 H70            1.6796    -7.3224    -9.6252 H       
  71 H71            1.6038    -4.9583    -9.1923 H       
  72 H72            1.0784    -5.0161   -10.9028 H       
@<TRIPOS>BOND
   1    1    2 ar
   2    1   11 ar
   3    1    7 1
   4    2    3 1
   5    2   14 ar
   6    3    8 1
   7    3    4 1
   8    4    5 1
   9    4   10 2
  10    5   21 2
  11    5    6 1
  12    6    7 1
  13    6   15 1
  14    6   22 1
  15    8    9 2
  16    8   39 1
  17    9   10 1
  18    9   40 1
  19   10   41 1
  20   11   12 ar
  21   11   42 1
  22   12   13 ar
  23   12   43 1
  24   13   14 ar
  25   13   44 1
  26   14   45 1
  27   15   16 ar
  28   15   20 ar
  29   16   17 ar
  30   16   46 1
  31   17   18 ar
  32   17   47 1
  33   18   19 ar
  34   18   24 1
  35   19   20 ar
  36   19   48 1
  37   20   49 1
  38   22   23 1
  39   22   50 1
  40   22   51 1
  41   23   52 1
  42   23   53 1
  43   23   54 1
  44   24   25 1
  45   24   55 1
  46   24   56 1
  47   25   26 1
  48   26   27 ar
  49   26   31 ar
  50   27   28 ar
  51   27   57 1
  52   28   29 ar
  53   28   58 1
  54   29   30 ar
  55   29   59 1
  56   30   31 ar
  57   30   32 1
  58   31   60 1
  59   32   33 1
  60   32   61 1
  61   32   62 1
  62   33   34 1
  63   33   63 1
  64   33   64 1
  65   34   35 1
  66   34   38 1
  67   35   36 1
  68   35   65 1
  69   35   66 1
  70   36   37 1
  71   36   67 1
  72   36   68 1
  73   37   38 1
  74   37   69 1
  75   37   70 1
  76   38   71 1
  77   38   72 1

#	End of record

