#	Name: ASD01202047
#	Creating user name:	WinNT
#	Creation time:	15. 06. 2019 19:09

#	Modifying user name:	WinNT
#	Modification time:	15. 06. 2019 19:09

#	Program:	/corina/corina34_cracker 3.40 0067  02.08.2006

@<TRIPOS>MOLECULE
ASD01202047
  49   52    0    0    0
SMALL
NO_CHARGES


@<TRIPOS>ATOM
   1 C1            -0.7222     0.8378    -0.8169 C.2     
   2 C2            -0.4516    -0.5523    -0.6981 C.2     
   3 C3             0.4695     1.4822    -0.6422 C.2     
   4 C4            -2.0311     1.4615    -1.0828 C.2     
   5 C5             0.8796    -0.6689    -0.4598 C.2     
   6 O6             1.4196     0.5654    -0.4292 O.3     
   7 O7            -2.1233     2.6716    -1.1611 O.2     
   8 N8            -3.1255     0.6907    -1.2393 N.am    
   9 C9             1.6123    -1.9344    -0.2668 C.ar    
  10 C10           -4.3589     1.2785    -1.4900 C.2     
  11 S11           -4.6307     2.9581    -1.6318 S.3     
  12 N12           -5.4639     0.6346    -1.6548 N.2     
  13 C13           -6.3485     2.6677    -1.9199 C.2     
  14 C14           -6.5692     1.3496    -1.8892 C.2     
  15 H15           -3.0520    -0.2745    -1.1769 H       
  16 C16            2.7905    -2.1903    -0.9959 C.ar    
  17 C17            3.4724    -3.3923    -0.8014 C.ar    
  18 C18            2.9920    -4.3193     0.0991 C.ar    
  19 C19            1.8329    -4.0674     0.8164 C.ar    
  20 C20            1.1467    -2.8839     0.6434 C.ar    
  21 C21            0.6784     2.9741    -0.6830 C.3     
  22 C22            3.2993    -1.1952    -1.9582 C.2     
  23 C23           -8.0497     1.0700    -2.1335 C.3     
  24 C24           -8.6061     2.3679    -2.7528 C.3     
  25 C25           -7.6347     3.4259    -2.1913 C.3     
  26 N26            4.5931    -0.8198    -1.9187 N.am    
  27 O27            2.5514    -0.7134    -2.7871 O.2     
  28 C28            5.1305     0.0668    -2.9538 C.3     
  29 C29            5.4621    -1.2985    -0.8408 C.3     
  30 H30           -1.1656    -1.3584    -0.7808 H       
  31 H31            4.3761    -3.5965    -1.3565 H       
  32 H32            3.5225    -5.2484     0.2465 H       
  33 H33            1.4667    -4.8017     1.5186 H       
  34 H34            0.2446    -2.6954     1.2065 H       
  35 H35            0.5521     3.3862     0.3181 H       
  36 H36            1.6850     3.1904    -1.0407 H       
  37 H37           -0.0510     3.4248    -1.3561 H       
  38 H38           -8.1683     0.2382    -2.8279 H       
  39 H39           -8.5544     0.8531    -1.1921 H       
  40 H40           -8.5561     2.3337    -3.8411 H       
  41 H41           -9.6259     2.5549    -2.4163 H       
  42 H42           -8.0261     3.8469    -1.2652 H       
  43 H43           -7.4658     4.2135    -2.9256 H       
  44 H44            5.0092     1.1043    -2.6422 H       
  45 H45            6.1891    -0.1468    -3.1015 H       
  46 H46            4.5929    -0.0973    -3.8877 H       
  47 H47            4.8696    -1.8602    -0.1187 H       
  48 H48            6.2353    -1.9443    -1.2571 H       
  49 H49            5.9282    -0.4471    -0.3447 H       
@<TRIPOS>BOND
   1    1    2 1
   2    1    3 2
   3    1    4 1
   4    2    5 2
   5    2   30 1
   6    3   21 1
   7    3    6 1
   8    4    7 2
   9    4    8 am
  10    5    9 1
  11    5    6 1
  12    8   15 1
  13    8   10 1
  14    9   16 ar
  15    9   20 ar
  16   10   12 2
  17   10   11 1
  18   11   13 1
  19   12   14 1
  20   13   14 2
  21   13   25 1
  22   14   23 1
  23   16   17 ar
  24   16   22 1
  25   17   18 ar
  26   17   31 1
  27   18   19 ar
  28   18   32 1
  29   19   20 ar
  30   19   33 1
  31   20   34 1
  32   21   35 1
  33   21   36 1
  34   21   37 1
  35   22   26 am
  36   22   27 2
  37   23   24 1
  38   23   38 1
  39   23   39 1
  40   24   25 1
  41   24   40 1
  42   24   41 1
  43   25   42 1
  44   25   43 1
  45   26   28 1
  46   26   29 1
  47   28   44 1
  48   28   45 1
  49   28   46 1
  50   29   47 1
  51   29   48 1
  52   29   49 1

#	End of record

