#	Name: ASD05723019
#	Creating user name:	WinNT
#	Creation time:	15. 06. 2019 21:02

#	Modifying user name:	WinNT
#	Modification time:	15. 06. 2019 21:02

#	Program:	/corina/corina34_cracker 3.40 0067  02.08.2006

@<TRIPOS>MOLECULE
ASD05723019
  73   79    0    0    0
SMALL
NO_CHARGES


@<TRIPOS>ATOM
   1 C1            -0.4894     1.4212     0.5780 C.ar    
   2 C2            -0.7696     0.0745     0.9156 C.ar    
   3 N3            -2.0351    -0.3706     0.9299 N.ar    
   4 C4            -3.0510     0.3996     0.6391 C.ar    
   5 C5            -2.8656     1.7514     0.2918 C.ar    
   6 C6            -1.5667     2.2822     0.2630 C.ar    
   7 C7            -3.9640     2.5895    -0.0239 C.2     
   8 C8            -3.7309     3.8859    -0.3520 C.2     
   9 C9            -2.4131     4.3858    -0.3766 C.2     
  10 N10           -1.3672     3.5934    -0.0713 N.am    
  11 C11            0.8330     1.8764     0.5667 C.ar    
  12 C12            1.8581     1.0016     0.8872 C.ar    
  13 C13            1.5730    -0.3304     1.2206 C.ar    
  14 C14            0.2926    -0.7877     1.2354 C.ar    
  15 C15            3.2633     1.4757     0.8774 C.ar    
  16 C16            4.2894     0.6278     1.2675 C.ar    
  17 C17            3.5655     2.7845     0.4674 C.ar    
  18 N18            4.7960     3.2294     0.4483 N.ar    
  19 C19            5.8266     2.4611     0.8182 C.ar    
  20 C20            5.6036     1.1264     1.2400 C.ar    
  21 C21            7.1416     2.9571     0.7914 C.ar    
  22 C22            8.1743     2.1568     1.1727 C.ar    
  23 C23            7.9523     0.8466     1.5921 C.ar    
  24 C24            6.6938     0.3288     1.6271 C.ar    
  25 O25           -2.2177     5.5523    -0.6729 O.2     
  26 C26           -0.0668     4.1140    -0.1025 C.ar    
  27 C27            0.5014     4.6325     1.0538 C.ar    
  28 C28            1.7824     5.1459     1.0231 C.ar    
  29 C29            2.5033     5.1434    -0.1643 C.ar    
  30 C30            1.9348     4.6242    -1.3209 C.ar    
  31 C31            0.6560     4.1063    -1.2887 C.ar    
  32 C32            2.3986     5.7094     2.2776 C.3     
  33 F33            1.5638     5.4422     3.3679 F       
  34 F34            3.6478     5.1167     2.4904 F       
  35 F35            2.5563     7.0926     2.1390 F       
  36 N36            3.8005     5.6637    -0.1956 N.3     
  37 C37            3.7776     7.1303    -0.2764 C.3     
  38 C38            4.5748     5.0812    -1.2997 C.3     
  39 C39            6.0341     5.5360    -1.1915 C.3     
  40 N40            6.0616     7.0048    -1.1197 N.am    
  41 C41            5.2043     7.6691    -0.1262 C.3     
  42 C42            6.8518     7.7229    -1.9421 C.2     
  43 C43            6.8644     9.2271    -1.8514 C.3     
  44 O44            7.5527     7.1586    -2.7552 O.2     
  45 C45            7.8382     9.7924    -2.8872 C.3     
  46 H46           -4.0505    -0.0087     0.6656 H       
  47 H47           -4.9720     2.2022    -0.0042 H       
  48 H48           -4.5578     4.5365    -0.5953 H       
  49 H49            1.0532     2.9020     0.3098 H       
  50 H50            2.3814    -1.0022     1.4685 H       
  51 H51            0.0914    -1.8166     1.4948 H       
  52 H52            4.0849    -0.3846     1.5833 H       
  53 H53            2.7633     3.4392     0.1604 H       
  54 H54            7.3320     3.9700     0.4688 H       
  55 H55            9.1824     2.5435     1.1496 H       
  56 H56            8.7898     0.2328     1.8895 H       
  57 H57            6.5338    -0.6881     1.9539 H       
  58 H58           -0.0591     4.6344     1.9769 H       
  59 H59            2.4950     4.6226    -2.2442 H       
  60 H60            0.2141     3.7028    -2.1877 H       
  61 H61            3.3734     7.4352    -1.2417 H       
  62 H62            3.1523     7.5289     0.5225 H       
  63 H63            4.5276     3.9937    -1.2430 H       
  64 H64            4.1595     5.4146    -2.2508 H       
  65 H65            6.4824     5.1169    -0.2906 H       
  66 H66            6.5878     5.2019    -2.0689 H       
  67 H67            5.2094     8.7453    -0.2993 H       
  68 H68            5.5728     7.4551     0.8770 H       
  69 H69            5.8631     9.6113    -2.0464 H       
  70 H70            7.1809     9.5283    -0.8528 H       
  71 H71            7.8474    10.8804    -2.8216 H       
  72 H72            8.8395     9.4082    -2.6922 H       
  73 H73            7.5217     9.4913    -3.8858 H       
@<TRIPOS>BOND
   1    1    2 ar
   2    1   11 ar
   3    1    6 ar
   4    2    3 ar
   5    2   14 ar
   6    3    4 ar
   7    4    5 ar
   8    4   46 1
   9    5    6 ar
  10    5    7 1
  11    6   10 1
  12    7    8 2
  13    7   47 1
  14    8    9 1
  15    8   48 1
  16    9   10 am
  17    9   25 2
  18   10   26 1
  19   11   12 ar
  20   11   49 1
  21   12   13 ar
  22   12   15 1
  23   13   14 ar
  24   13   50 1
  25   14   51 1
  26   15   16 ar
  27   15   17 ar
  28   16   20 ar
  29   16   52 1
  30   17   18 ar
  31   17   53 1
  32   18   19 ar
  33   19   20 ar
  34   19   21 ar
  35   20   24 ar
  36   21   22 ar
  37   21   54 1
  38   22   23 ar
  39   22   55 1
  40   23   24 ar
  41   23   56 1
  42   24   57 1
  43   26   27 ar
  44   26   31 ar
  45   27   28 ar
  46   27   58 1
  47   28   29 ar
  48   28   32 1
  49   29   30 ar
  50   29   36 1
  51   30   31 ar
  52   30   59 1
  53   31   60 1
  54   32   33 1
  55   32   34 1
  56   32   35 1
  57   36   37 1
  58   36   38 1
  59   37   41 1
  60   37   61 1
  61   37   62 1
  62   38   39 1
  63   38   63 1
  64   38   64 1
  65   39   40 1
  66   39   65 1
  67   39   66 1
  68   40   41 1
  69   40   42 am
  70   41   67 1
  71   41   68 1
  72   42   43 1
  73   42   44 2
  74   43   45 1
  75   43   69 1
  76   43   70 1
  77   45   71 1
  78   45   72 1
  79   45   73 1

#	End of record

