#	Name: ASD00069222
#	Creating user name:	WinNT
#	Creation time:	15. 06. 2019 18:29

#	Modifying user name:	WinNT
#	Modification time:	15. 06. 2019 18:29

#	Program:	/corina/corina34_cracker 3.40 0067  02.08.2006

@<TRIPOS>MOLECULE
ASD00069222
  72   76    0    0    0
SMALL
NO_CHARGES


@<TRIPOS>ATOM
   1 C1            -0.1171     1.3135    -0.0139 C.2     
   2 N2            -0.0828     0.0004    -0.0175 N.2     
   3 C3             1.1943    -0.4040    -0.0098 C.2     
   4 C4             1.9921     0.7190    -0.0009 C.2     
   5 N5             1.1655     1.7876    -0.0035 N.pl3   
   6 C6            -1.3379     2.1404    -0.0255 C.2     
   7 O7            -1.2508     3.3535    -0.0212 O.2     
   8 N8            -2.5503     1.5519    -0.0408 N.am    
   9 C9             3.3972    -3.3385    -0.0014 C.ar    
  10 N10            2.9697    -2.0857    -0.0015 N.ar    
  11 C11            1.6652    -1.8096    -0.0102 C.ar    
  12 C12            0.7508    -2.8612    -0.0193 C.ar    
  13 C13            1.2412    -4.1653    -0.0189 C.ar    
  14 N14            2.5569    -4.3623    -0.0099 N.ar    
  15 O15           -0.3153    -7.9658    -0.1017 O.3     
  16 C16           -0.5192    -7.1585    -1.2645 C.3     
  17 C17            0.4999    -6.0160    -1.2711 C.3     
  18 N18            0.3700    -5.2432    -0.0273 N.3     
  19 C19            0.5848    -6.1034     1.1454 C.3     
  20 C20           -0.4351    -7.2451     1.1278 C.3     
  21 C21            0.2358    -5.1028    -2.4699 C.3     
  22 N22            4.7591    -3.5852     0.0019 N.pl3   
  23 C23            5.7060    -2.4673     0.0053 C.3     
  24 C24           -3.7086     2.3316     0.0678 C.ar    
  25 C25           -4.8710     1.9537    -0.6029 C.ar    
  26 C26           -6.0159     2.7313    -0.4910 C.ar    
  27 C27           -5.9998     3.8776     0.2848 C.ar    
  28 C28           -4.8461     4.2510     0.9493 C.ar    
  29 C29           -3.7040     3.4790     0.8475 C.ar    
  30 F30           -7.1446     2.3697    -1.1393 F       
  31 N31           -4.8837     0.7934    -1.3876 N.3     
  32 C32           -5.8839    -0.1631    -0.8965 C.3     
  33 C33           -5.7702    -1.4710    -1.6828 C.3     
  34 C34           -5.9951    -1.1876    -3.1707 C.3     
  35 C35           -4.9714    -0.1526    -3.6454 C.3     
  36 C36           -5.1083     1.1171    -2.8022 C.3     
  37 C37           -5.8225    -2.4811    -3.9693 C.3     
  38 N38           -6.1550    -2.2344    -5.3788 N.3     
  39 H39            3.0719     0.7410     0.0072 H       
  40 H40            1.4328     2.7200     0.0011 H       
  41 H41           -2.6207     0.5884    -0.1270 H       
  42 H42           -0.3121    -2.6699    -0.0262 H       
  43 H43           -0.3882    -7.7683    -2.1584 H       
  44 H44           -1.5281    -6.7462    -1.2490 H       
  45 H45            1.5070    -6.4270    -1.3407 H       
  46 H46            1.5933    -6.5158     1.1144 H       
  47 H47            0.4586    -5.5166     2.0553 H       
  48 H48           -1.4416    -6.8353     1.2128 H       
  49 H49           -0.2433    -7.9174     1.9640 H       
  50 H50           -0.7349    -4.6209    -2.3527 H       
  51 H51            1.0146    -4.3423    -2.5259 H       
  52 H52            0.2394    -5.6946    -3.3853 H       
  53 H53            5.0866    -4.4982     0.0021 H       
  54 H54            5.5511    -1.8572    -0.8846 H       
  55 H55            5.5465    -1.8587     0.8954 H       
  56 H56            6.7250    -2.8543     0.0077 H       
  57 H57           -6.8906     4.4821     0.3710 H       
  58 H58           -4.8386     5.1464     1.5531 H       
  59 H59           -2.8063     3.7716     1.3720 H       
  60 H60           -5.7102    -0.3591     0.1616 H       
  61 H61           -6.8819     0.2548    -1.0291 H       
  62 H62           -4.7770    -1.8966    -1.5395 H       
  63 H63           -6.5231    -2.1752    -1.3287 H       
  64 H64           -7.0023    -0.7983    -3.3191 H       
  65 H65           -3.9656    -0.5575    -3.5330 H       
  66 H66           -5.1535     0.0851    -4.6935 H       
  67 H67           -6.1098     1.5290    -2.9259 H       
  68 H68           -4.3711     1.8509    -3.1283 H       
  69 H69           -4.7892    -2.8197    -3.8937 H       
  70 H70           -6.4861    -3.2471    -3.5682 H       
  71 H71           -6.0488    -3.0743    -5.9277 H       
  72 H72           -7.0868    -1.8583    -5.4700 H       
@<TRIPOS>BOND
   1    1    2 2
   2    1    5 1
   3    1    6 1
   4    2    3 1
   5    3    4 2
   6    3   11 1
   7    4    5 1
   8    4   39 1
   9    5   40 1
  10    6    7 2
  11    6    8 am
  12    8   24 1
  13    8   41 1
  14    9   10 ar
  15    9   14 ar
  16    9   22 1
  17   10   11 ar
  18   11   12 ar
  19   12   13 ar
  20   12   42 1
  21   13   14 ar
  22   13   18 1
  23   15   16 1
  24   15   20 1
  25   16   17 1
  26   16   43 1
  27   16   44 1
  28   17   18 1
  29   17   21 1
  30   17   45 1
  31   18   19 1
  32   19   20 1
  33   19   46 1
  34   19   47 1
  35   20   48 1
  36   20   49 1
  37   21   50 1
  38   21   51 1
  39   21   52 1
  40   22   23 1
  41   22   53 1
  42   23   54 1
  43   23   55 1
  44   23   56 1
  45   24   25 ar
  46   24   29 ar
  47   25   26 ar
  48   25   31 1
  49   26   27 ar
  50   26   30 1
  51   27   28 ar
  52   27   57 1
  53   28   29 ar
  54   28   58 1
  55   29   59 1
  56   31   32 1
  57   31   36 1
  58   32   33 1
  59   32   60 1
  60   32   61 1
  61   33   34 1
  62   33   62 1
  63   33   63 1
  64   34   35 1
  65   34   37 1
  66   34   64 1
  67   35   36 1
  68   35   65 1
  69   35   66 1
  70   36   67 1
  71   36   68 1
  72   37   38 1
  73   37   69 1
  74   37   70 1
  75   38   71 1
  76   38   72 1

#	End of record

