#	Name: ASD03240318
#	Creating user name:	WinNT
#	Creation time:	15. 06. 2019 20:34

#	Modifying user name:	WinNT
#	Modification time:	15. 06. 2019 20:34

#	Program:	/corina/corina34_cracker 3.40 0067  02.08.2006

@<TRIPOS>MOLECULE
ASD03240318
  79   83    0    0    0
SMALL
NO_CHARGES


@<TRIPOS>ATOM
   1 C1             0.1004     1.7330     1.5342 C.2     
   2 N2             0.1768     0.5299     2.1951 N.pl3   
   3 O3            -3.4787     3.4891     1.2616 O.2     
   4 C4            -2.6158     4.1468     0.7197 C.2     
   5 C5            -1.1903     3.6579     0.7100 C.3     
   6 N6            -1.1089     2.3759     1.4143 N.pl3   
   7 N7             1.1755     2.2668     1.0260 N.2     
   8 N8            -2.9316     5.3149     0.1263 N.am    
   9 C9            -4.2628     5.7127     0.0368 C.ar    
  10 C10           -4.5954     7.0729     0.1200 C.ar    
  11 C11           -5.9249     7.4655     0.0298 C.ar    
  12 C12           -6.9213     6.5044    -0.1431 C.ar    
  13 C13           -6.5800     5.1508    -0.2249 C.ar    
  14 C14           -5.2612     4.7627    -0.1407 C.ar    
  15 C15           -8.3355     6.9161    -0.2391 C.2     
  16 N16           -9.2979     5.9875    -0.4061 N.am    
  17 O17           -8.6322     8.0932    -0.1675 O.2     
  18 C18          -10.6469     6.3635    -0.3744 C.ar    
  19 C19          -11.5951     5.6047    -1.0480 C.ar    
  20 C20          -11.0368     7.4916     0.3354 C.ar    
  21 C21          -12.3664     7.8622     0.3667 C.ar    
  22 C22          -13.3140     7.1067    -0.3117 C.ar    
  23 C23          -12.9247     5.9751    -1.0168 C.ar    
  24 N24          -14.6613     7.4819    -0.2797 N.pl3   
  25 C25          -15.6608     6.6849    -0.9952 C.3     
  26 C26          -15.0727     8.6718     0.4694 C.3     
  27 C27           -3.5317     8.0880     0.3041 C.ar    
  28 C28           -3.4819     9.2051    -0.5308 C.ar    
  29 C29           -2.4945    10.1486    -0.3608 C.ar    
  30 C30           -1.5411     9.9875     0.6487 C.ar    
  31 C31           -1.5920     8.8682     1.4843 C.ar    
  32 C32           -2.5838     7.9290     1.3160 C.ar    
  33 C33          -15.0193     9.8771    -0.4335 C.ar    
  34 C34          -16.1981     5.6143    -0.0808 C.ar    
  35 C35          -16.1321    10.2393    -1.1694 C.ar    
  36 C36          -16.0830    11.3450    -1.9977 C.ar    
  37 C37          -14.9214    12.0887    -2.0897 C.ar    
  38 C38          -13.8090    11.7270    -1.3531 C.ar    
  39 C39          -13.8594    10.6239    -0.5216 C.ar    
  40 C40          -17.3042     5.8700     0.7078 C.ar    
  41 C41          -17.7970     4.8879     1.5467 C.ar    
  42 C42          -17.1838     3.6500     1.5965 C.ar    
  43 C43          -16.0782     3.3940     0.8072 C.ar    
  44 C44          -15.5881     4.3746    -0.0348 C.ar    
  45 C45           -0.5129    10.9683     0.8263 C.1     
  46 N46            0.3028    11.7463     0.9672 N.1     
  47 H47            1.0307     0.0782     2.2832 H       
  48 H48           -0.6232     0.1326     2.5733 H       
  49 H49           -0.8576     3.5285    -0.3199 H       
  50 H50           -0.5525     4.3876     1.2089 H       
  51 H51           -1.9083     1.9806     1.7960 H       
  52 H52            1.1216     3.1156     0.5597 H       
  53 H53           -2.2315     5.8785    -0.2385 H       
  54 H54           -6.1864     8.5114     0.0936 H       
  55 H55           -7.3524     4.4079    -0.3588 H       
  56 H56           -5.0030     3.7159    -0.2045 H       
  57 H57           -9.0564     5.0589    -0.5482 H       
  58 H58          -11.2923     4.7251    -1.5966 H       
  59 H59          -10.3000     8.0789     0.8631 H       
  60 H60          -12.6696     8.7394     0.9190 H       
  61 H61          -13.6615     5.3878    -1.5446 H       
  62 H62          -16.4776     7.3307    -1.3176 H       
  63 H63          -15.1992     6.2204    -1.8666 H       
  64 H64          -16.0906     8.5368     0.8354 H       
  65 H65          -14.3997     8.8202     1.3138 H       
  66 H66           -4.2185     9.3291    -1.3109 H       
  67 H67           -2.4560    11.0128    -1.0073 H       
  68 H68           -0.8560     8.7426     2.2647 H       
  69 H69           -2.6236     7.0642     1.9617 H       
  70 H70          -17.0396     9.6583    -1.0975 H       
  71 H71          -16.9522    11.6275    -2.5732 H       
  72 H72          -14.8829    12.9521    -2.7374 H       
  73 H73          -12.9014    12.3079    -1.4253 H       
  74 H74          -12.9903    10.3414     0.0539 H       
  75 H75          -17.7832     6.8371     0.6689 H       
  76 H76          -18.6607     5.0879     2.1633 H       
  77 H77          -17.5684     2.8829     2.2524 H       
  78 H78          -15.5990     2.4269     0.8464 H       
  79 H79          -14.7243     4.1746    -0.6515 H       
@<TRIPOS>BOND
   1    1    2 1
   2    1    7 2
   3    1    6 1
   4    2   47 1
   5    2   48 1
   6    3    4 2
   7    4    5 1
   8    4    8 am
   9    5    6 1
  10    5   49 1
  11    5   50 1
  12    6   51 1
  13    7   52 1
  14    8    9 1
  15    8   53 1
  16    9   10 ar
  17    9   14 ar
  18   10   11 ar
  19   10   27 1
  20   11   12 ar
  21   11   54 1
  22   12   13 ar
  23   12   15 1
  24   13   14 ar
  25   13   55 1
  26   14   56 1
  27   15   16 am
  28   15   17 2
  29   16   18 1
  30   16   57 1
  31   18   19 ar
  32   18   20 ar
  33   19   23 ar
  34   19   58 1
  35   20   21 ar
  36   20   59 1
  37   21   22 ar
  38   21   60 1
  39   22   23 ar
  40   22   24 1
  41   23   61 1
  42   24   25 1
  43   24   26 1
  44   25   34 1
  45   25   62 1
  46   25   63 1
  47   26   33 1
  48   26   64 1
  49   26   65 1
  50   27   28 ar
  51   27   32 ar
  52   28   29 ar
  53   28   66 1
  54   29   30 ar
  55   29   67 1
  56   30   31 ar
  57   30   45 1
  58   31   32 ar
  59   31   68 1
  60   32   69 1
  61   33   35 ar
  62   33   39 ar
  63   34   40 ar
  64   34   44 ar
  65   35   36 ar
  66   35   70 1
  67   36   37 ar
  68   36   71 1
  69   37   38 ar
  70   37   72 1
  71   38   39 ar
  72   38   73 1
  73   39   74 1
  74   40   41 ar
  75   40   75 1
  76   41   42 ar
  77   41   76 1
  78   42   43 ar
  79   42   77 1
  80   43   44 ar
  81   43   78 1
  82   44   79 1
  83   45   46 3

#	End of record

