#	Name: ASD03331843
#	Creating user name:	WinNT
#	Creation time:	15. 06. 2019 20:40

#	Modifying user name:	WinNT
#	Modification time:	15. 06. 2019 20:40

#	Program:	/corina/corina34_cracker 3.40 0067  02.08.2006

@<TRIPOS>MOLECULE
ASD03331843
  48   51    0    0    0
SMALL
NO_CHARGES


@<TRIPOS>ATOM
   1 C1             1.1653    -0.4238    -1.2316 C.ar    
   2 C2             0.6540     0.0113    -2.4415 C.ar    
   3 C3             1.1642     1.1484    -3.0422 C.ar    
   4 C4             2.1860     1.8522    -2.4356 C.ar    
   5 C5             2.7011     1.4178    -1.2214 C.ar    
   6 C6             2.1869     0.2764    -0.6204 C.ar    
   7 N7             3.7370     2.1289    -0.6045 N.am    
   8 C8             3.7764     3.4733    -0.6914 C.2     
   9 N9             4.7205     4.1644    -0.0224 N.am    
  10 O10            2.9604     4.0626    -1.3734 O.2     
  11 C11            4.8223     5.5504    -0.1881 C.ar    
  12 C12            3.7723     7.6842    -0.5291 C.ar    
  13 C13            3.6759     6.3151    -0.3646 C.ar    
  14 C14            6.0670     6.1614    -0.1704 C.ar    
  15 C15            6.1633     7.5408    -0.3357 C.ar    
  16 C16            5.0078     8.2995    -0.5180 C.ar    
  17 C17            7.4913     8.2010    -0.3173 C.ar    
  18 C18            7.5980     9.5846    -0.4824 C.ar    
  19 C19            8.8576    10.1560    -0.4576 C.ar    
  20 N20            9.9165     9.3818    -0.2798 N.ar    
  21 C21            9.7858     8.0722    -0.1258 C.ar    
  22 N22            8.5991     7.4856    -0.1379 N.ar    
  23 Br23          -0.7442    -0.9505    -3.2757 Br      
  24 N24           10.9187     7.2983     0.0572 N.3     
  25 C25           12.1352     8.1313     0.0454 C.3     
  26 C26           12.8723     7.8829     1.3782 C.3     
  27 C27           12.3303     6.4995     1.8248 C.3     
  28 C28           10.8601     6.5687     1.3417 C.3     
  29 H29            0.7622    -1.3092    -0.7627 H       
  30 H30            0.7633     1.4858    -3.9866 H       
  31 H31            2.5844     2.7394    -2.9053 H       
  32 H32            2.5854    -0.0634     0.3241 H       
  33 H33            4.4264     1.6541    -0.1145 H       
  34 H34            5.3293     3.7012     0.5740 H       
  35 H35            2.8782     8.2742    -0.6663 H       
  36 H36            2.7068     5.8385    -0.3738 H       
  37 H37            6.9591     5.5694    -0.0284 H       
  38 H38            5.0793     9.3694    -0.6475 H       
  39 H39            6.7177    10.1935    -0.6262 H       
  40 H40            8.9758    11.2222    -0.5824 H       
  41 H41           12.7732     7.8441    -0.7903 H       
  42 H42           11.8632     9.1836    -0.0373 H       
  43 H43           13.9501     7.8420     1.2207 H       
  44 H44           12.6173     8.6507     2.1086 H       
  45 H45           12.8669     5.6911     1.3281 H       
  46 H46           12.3807     6.3916     2.9082 H       
  47 H47           10.2497     7.1149     2.0609 H       
  48 H48           10.4628     5.5650     1.1903 H       
@<TRIPOS>BOND
   1    1    2 ar
   2    1    6 ar
   3    1   29 1
   4    2    3 ar
   5    2   23 1
   6    3    4 ar
   7    3   30 1
   8    4    5 ar
   9    4   31 1
  10    5    6 ar
  11    5    7 1
  12    6   32 1
  13    7    8 am
  14    7   33 1
  15    8    9 am
  16    8   10 2
  17    9   11 1
  18    9   34 1
  19   11   14 ar
  20   11   13 ar
  21   12   13 ar
  22   12   16 ar
  23   12   35 1
  24   13   36 1
  25   14   15 ar
  26   14   37 1
  27   15   16 ar
  28   15   17 1
  29   16   38 1
  30   17   18 ar
  31   17   22 ar
  32   18   19 ar
  33   18   39 1
  34   19   20 ar
  35   19   40 1
  36   20   21 ar
  37   21   22 ar
  38   21   24 1
  39   24   25 1
  40   24   28 1
  41   25   26 1
  42   25   41 1
  43   25   42 1
  44   26   27 1
  45   26   43 1
  46   26   44 1
  47   27   28 1
  48   27   45 1
  49   27   46 1
  50   28   47 1
  51   28   48 1

#	End of record

