#	Name: ASD01001072
#	Creating user name:	WinNT
#	Creation time:	15. 06. 2019 18:55

#	Modifying user name:	WinNT
#	Modification time:	15. 06. 2019 18:55

#	Program:	/corina/corina34_cracker 3.40 0067  02.08.2006

@<TRIPOS>MOLECULE
ASD01001072
  40   42    0    0    0
SMALL
NO_CHARGES


@<TRIPOS>ATOM
   1 C1            -0.0166     1.3748     0.0096 C.ar    
   2 C2             0.0021    -0.0041     0.0020 C.ar    
   3 C3             1.1847     2.0873     0.0020 C.ar    
   4 C4             1.2070    -0.6858    -0.0127 C.ar    
   5 C5             2.4020     1.3930    -0.0134 C.ar    
   6 C6             1.1722     3.5610     0.0095 C.2     
   7 C7             2.4025     0.0077    -0.0199 C.ar    
   8 N8             2.2181     4.3134     0.0031 N.2     
   9 N9             1.9376     5.6783     0.0119 N.am    
  10 C10            0.4778     5.8639     0.0264 C.3     
  11 C11           -0.0700     4.4230     0.0194 C.3     
  12 C12            2.8535     6.6669     0.0081 C.2     
  13 C13            0.0484     6.5933     1.2733 C.ar    
  14 C14           -0.9611     7.5355     1.2098 C.ar    
  15 C15           -1.3550     8.2046     2.3535 C.ar    
  16 C16           -0.7396     7.9313     3.5607 C.ar    
  17 C17            0.2693     6.9884     3.6244 C.ar    
  18 C18            0.6602     6.3162     2.4815 C.ar    
  19 C19            4.3229     6.3327    -0.0073 C.3     
  20 O20            2.4952     7.8259     0.0171 O.2     
  21 O21            3.5762     2.0753    -0.0214 O.3     
  22 C22            4.7767     1.3004    -0.0370 C.3     
  23 H23           -0.9587     1.9029     0.0169 H       
  24 H24           -0.9271    -0.5545     0.0079 H       
  25 H25            1.2128    -1.7658    -0.0182 H       
  26 H26            3.3384    -0.5312    -0.0310 H       
  27 H27            0.1504     6.3996    -0.8646 H       
  28 H28           -0.6708     4.2467    -0.8728 H       
  29 H29           -0.6548     4.2319     0.9192 H       
  30 H30           -1.4419     7.7491     0.2666 H       
  31 H31           -2.1432     8.9413     2.3037 H       
  32 H32           -1.0468     8.4545     4.4541 H       
  33 H33            0.7503     6.7751     4.5675 H       
  34 H34            1.4484     5.5795     2.5312 H       
  35 H35            4.4492     5.2500    -0.0137 H       
  36 H36            4.7828     6.7575    -0.8995 H       
  37 H37            4.7995     6.7488     0.8803 H       
  38 H38            4.8120     0.6672     0.8495 H       
  39 H39            4.7947     0.6762    -0.9303 H       
  40 H40            5.6393     1.9668    -0.0420 H       
@<TRIPOS>BOND
   1    1    2 ar
   2    1    3 ar
   3    1   23 1
   4    2    4 ar
   5    2   24 1
   6    3    6 1
   7    3    5 ar
   8    4    7 ar
   9    4   25 1
  10    5   21 1
  11    5    7 ar
  12    6    8 2
  13    6   11 1
  14    7   26 1
  15    8    9 1
  16    9   10 1
  17    9   12 am
  18   10   11 1
  19   10   13 1
  20   10   27 1
  21   11   28 1
  22   11   29 1
  23   12   19 1
  24   12   20 2
  25   13   14 ar
  26   13   18 ar
  27   14   15 ar
  28   14   30 1
  29   15   16 ar
  30   15   31 1
  31   16   17 ar
  32   16   32 1
  33   17   18 ar
  34   17   33 1
  35   18   34 1
  36   19   35 1
  37   19   36 1
  38   19   37 1
  39   21   22 1
  40   22   38 1
  41   22   39 1
  42   22   40 1

#	End of record

