#	Name: ASD01810021
#	Creating user name:	WinNT
#	Creation time:	15. 06. 2019 19:23

#	Modifying user name:	WinNT
#	Modification time:	15. 06. 2019 19:23

#	Program:	/corina/corina34_cracker 3.40 0067  02.08.2006

@<TRIPOS>MOLECULE
ASD01810021
  45   49    0    0    0
SMALL
NO_CHARGES


@<TRIPOS>ATOM
   1 N1            -0.0163     1.3478     0.0095 N.am    
   2 C2             0.0021    -0.0041     0.0020 C.2     
   3 C3            -1.2677    -0.7369    -0.3572 C.3     
   4 C4            -2.5160    -0.1235     0.2725 C.3     
   5 C5            -2.5122     1.3734     0.1208 C.ar    
   6 C6            -1.2661     1.9811     0.0316 C.ar    
   7 C7            -3.6303     2.1620     0.0678 C.ar    
   8 C8            -3.5032     3.5493    -0.0489 C.ar    
   9 C9            -2.2638     4.1486    -0.0990 C.ar    
  10 C10           -1.1111     3.3587    -0.0514 C.ar    
  11 C11            0.9570     2.3083     0.0053 C.ar    
  12 C12            0.3361     3.5840    -0.0415 C.ar    
  13 C13            1.0865     4.7594    -0.0670 C.ar    
  14 C14            2.4676     4.6295    -0.0387 C.ar    
  15 C15            3.0797     3.3807     0.0133 C.ar    
  16 C16            2.3462     2.2028     0.0385 C.ar    
  17 C17           -4.7729     4.3589    -0.1232 C.3     
  18 N18           -4.5080     5.7660     0.1890 N.3     
  19 C19           -3.4197     6.2793    -0.6583 C.3     
  20 C20           -2.1082     5.6437    -0.1972 C.3     
  21 O21            1.0140    -0.6130     0.2768 O.2     
  22 O22            3.2411     5.7484    -0.0626 O.3     
  23 C23            2.5628     7.0050    -0.1165 C.3     
  24 O24            4.4374     3.3127     0.0422 O.3     
  25 C25            5.0207     2.0092     0.0954 C.3     
  26 H26           -1.3821    -0.7283    -1.4411 H       
  27 H27           -1.1805    -1.7715    -0.0253 H       
  28 H28           -3.4011    -0.5311    -0.2160 H       
  29 H29           -2.5440    -0.3764     1.3324 H       
  30 H30           -4.6110     1.7120     0.1158 H       
  31 H31            0.6128     5.7291    -0.1075 H       
  32 H32            2.8338     1.2400     0.0791 H       
  33 H33           -5.1871     4.2859    -1.1288 H       
  34 H34           -5.4942     3.9621     0.5913 H       
  35 H35           -5.3425     6.3232     0.0827 H       
  36 H36           -3.6093     6.0159    -1.6988 H       
  37 H37           -3.3572     7.3630    -0.5590 H       
  38 H38           -1.8365     6.0437     0.7797 H       
  39 H39           -1.3210     5.8790    -0.9136 H       
  40 H40            3.2946     7.8127    -0.1308 H       
  41 H41            1.9536     7.0507    -1.0192 H       
  42 H42            1.9227     7.1102     0.7595 H       
  43 H43            4.6825     1.4963     0.9957 H       
  44 H44            4.7176     1.4395    -0.7830 H       
  45 H45            6.1070     2.0978     0.1140 H       
@<TRIPOS>BOND
   1    1    2 am
   2    1   11 1
   3    1    6 1
   4    2    3 1
   5    2   21 2
   6    3    4 1
   7    3   26 1
   8    3   27 1
   9    4    5 1
  10    4   28 1
  11    4   29 1
  12    5    6 ar
  13    5    7 ar
  14    6   10 ar
  15    7    8 ar
  16    7   30 1
  17    8    9 ar
  18    8   17 1
  19    9   10 ar
  20    9   20 1
  21   10   12 1
  22   11   12 ar
  23   11   16 ar
  24   12   13 ar
  25   13   14 ar
  26   13   31 1
  27   14   15 ar
  28   14   22 1
  29   15   16 ar
  30   15   24 1
  31   16   32 1
  32   17   18 1
  33   17   33 1
  34   17   34 1
  35   18   19 1
  36   18   35 1
  37   19   20 1
  38   19   36 1
  39   19   37 1
  40   20   38 1
  41   20   39 1
  42   22   23 1
  43   23   40 1
  44   23   41 1
  45   23   42 1
  46   24   25 1
  47   25   43 1
  48   25   44 1
  49   25   45 1

#	End of record

