#	Name: ASD03092239
#	Creating user name:	WinNT
#	Creation time:	15. 06. 2019 20:32

#	Modifying user name:	WinNT
#	Modification time:	15. 06. 2019 20:32

#	Program:	/corina/corina34_cracker 3.40 0067  02.08.2006

@<TRIPOS>MOLECULE
ASD03092239
  37   39    0    0    0
SMALL
NO_CHARGES


@<TRIPOS>ATOM
   1 C1            -0.2243     1.4181     0.0534 C.3     
   2 O2            -0.1619    -0.0088     0.0087 O.3     
   3 C3            -1.3455    -0.6780    -0.0219 C.ar    
   4 C4            -2.5395     0.0231    -0.0149 C.ar    
   5 C5            -3.7426    -0.6588    -0.0464 C.ar    
   6 C6            -3.7575    -2.0404    -0.0850 C.ar    
   7 C7            -2.5698    -2.7480    -0.0918 C.ar    
   8 C8            -1.3595    -2.0709    -0.0661 C.ar    
   9 N9            -0.1554    -2.7849    -0.0787 N.pl3   
  10 C10           -0.1663    -4.1743     0.0569 C.2     
  11 N11            0.8993    -4.9709    -0.0459 N.2     
  12 C12            0.5357    -6.2250     0.1360 C.2     
  13 C13            1.4284    -7.4038     0.0996 C.ar    
  14 C14            1.3590    -8.3662     1.1072 C.ar    
  15 C15            2.1940    -9.4636     1.0682 C.ar    
  16 C16            3.1002    -9.6117     0.0318 C.ar    
  17 Cl17           4.1470   -10.9960    -0.0101 Cl      
  18 C18            3.1745    -8.6605    -0.9715 C.ar    
  19 C19            2.3401    -7.5608    -0.9466 C.ar    
  20 Cl20           2.4291    -6.3723    -2.2088 Cl      
  21 N21           -0.7971    -6.2432     0.3622 N.pl3   
  22 C22           -1.6283    -7.4226     0.6157 C.3     
  23 N23           -1.2257    -4.9069     0.3116 N.2     
  24 H24            0.7864     1.8255     0.0742 H       
  25 H25           -0.7465     1.7868    -0.8295 H       
  26 H26           -0.7606     1.7304     0.9495 H       
  27 H27           -2.5315     1.1027     0.0156 H       
  28 H28           -4.6728    -0.1101    -0.0406 H       
  29 H29           -4.6993    -2.5684    -0.1095 H       
  30 H30           -2.5844    -3.8275    -0.1216 H       
  31 H31            0.6865    -2.3143    -0.1817 H       
  32 H32            0.6530    -8.2521     1.9165 H       
  33 H33            2.1410   -10.2089     1.8481 H       
  34 H34            3.8835    -8.7810    -1.7773 H       
  35 H35           -1.7328    -7.5692     1.6908 H       
  36 H36           -2.6128    -7.2755     0.1717 H       
  37 H37           -1.1577    -8.3007     0.1733 H       
@<TRIPOS>BOND
   1    1    2 1
   2    1   24 1
   3    1   25 1
   4    1   26 1
   5    2    3 1
   6    3    8 ar
   7    3    4 ar
   8    4    5 ar
   9    4   27 1
  10    5    6 ar
  11    5   28 1
  12    6    7 ar
  13    6   29 1
  14    7    8 ar
  15    7   30 1
  16    8    9 1
  17    9   10 1
  18    9   31 1
  19   10   23 2
  20   10   11 1
  21   11   12 2
  22   12   13 1
  23   12   21 1
  24   13   19 ar
  25   13   14 ar
  26   14   15 ar
  27   14   32 1
  28   15   16 ar
  29   15   33 1
  30   16   17 1
  31   16   18 ar
  32   18   19 ar
  33   18   34 1
  34   19   20 1
  35   21   22 1
  36   21   23 1
  37   22   35 1
  38   22   36 1
  39   22   37 1

#	End of record

