#	Name: ASD01209006
#	Creating user name:	WinNT
#	Creation time:	15. 06. 2019 19:10

#	Modifying user name:	WinNT
#	Modification time:	15. 06. 2019 19:10

#	Program:	/corina/corina34_cracker 3.40 0067  02.08.2006

@<TRIPOS>MOLECULE
ASD01209006
  55   59    0    0    0
SMALL
NO_CHARGES


@<TRIPOS>ATOM
   1 C1            -0.8144    -2.6456     0.8441 C.3     
   2 C2            -0.9237    -2.0742    -0.5914 C.3     
   3 C3            -1.0845    -0.5529    -0.5607 C.3     
   4 C4            -2.4316    -0.1951     0.0703 C.3     
   5 C5            -2.5317     1.3004     0.2266 C.2     
   6 N6            -1.7307     1.9417     1.1004 N.am    
   7 C7            -1.9037     3.3053     1.3333 C.ar    
   8 N8            -3.5164    -0.6696    -0.7924 N.pl3   
   9 C9            -4.4845    -1.5696    -0.4302 C.ar    
  10 C10           -5.3185    -1.7412    -1.5522 C.ar    
  11 C11           -4.7774    -0.8822    -2.6005 C.2     
  12 N12           -3.7337    -0.2723    -2.1157 N.2     
  13 O13           -3.3330     1.9268    -0.4339 O.2     
  14 C14           -4.7581    -2.2737     0.7395 C.ar    
  15 C15           -5.8285    -3.1213     0.7884 C.ar    
  16 C16           -6.6523    -3.2920    -0.3172 C.ar    
  17 C17           -6.4092    -2.6142    -1.4768 C.ar    
  18 S18           -7.4615    -2.8397    -2.8720 S.o2    
  19 C19           -8.2453    -1.2218    -3.1139 C.3     
  20 O20           -6.5699    -3.1267    -3.9406 O.2     
  21 O21           -8.4177    -3.7973    -2.4385 O.2     
  22 C22           -9.3222    -1.1132    -4.1953 C.3     
  23 C23           -9.7165    -1.0832    -2.7173 C.3     
  24 C24            0.4402    -2.4719    -1.2107 C.3     
  25 C25            0.7229    -3.8650    -0.6111 C.3     
  26 C26           -0.0746    -3.9604     0.6728 C.2     
  27 O27           -0.1148    -4.9070     1.4216 O.2     
  28 C28           -3.0891     3.9319     0.9600 C.ar    
  29 N29           -3.2491     5.2230     1.1821 N.ar    
  30 C30           -2.2852     5.9207     1.7585 C.ar    
  31 C31           -1.1064     5.3013     2.1306 C.ar    
  32 N32           -0.9412     4.0075     1.9162 N.ar    
  33 H33           -0.2451    -1.9686     1.4810 H       
  34 H34           -1.8064    -2.8184     1.2616 H       
  35 H35           -1.7485    -2.5387    -1.1318 H       
  36 H36           -0.2793    -0.1142     0.0285 H       
  37 H37           -1.0447    -0.1628    -1.5777 H       
  38 H38           -2.5118    -0.6689     1.0487 H       
  39 H39           -1.0338     1.4546     1.5672 H       
  40 H40           -5.1742    -0.7690    -3.5985 H       
  41 H41           -4.1254    -2.1504     1.6060 H       
  42 H42           -6.0367    -3.6657     1.6977 H       
  43 H43           -7.4935    -3.9667    -0.2583 H       
  44 H44           -7.5985    -0.3582    -2.9592 H       
  45 H45           -9.3841    -0.1780    -4.7518 H       
  46 H46           -9.5596    -2.0139    -4.7614 H       
  47 H47          -10.2134    -1.9642    -2.3110 H       
  48 H48          -10.0378    -0.1283    -2.3014 H       
  49 H49            0.3653    -2.5303    -2.2966 H       
  50 H50            1.2152    -1.7640    -0.9169 H       
  51 H51            0.4040    -4.6415    -1.3064 H       
  52 H52            1.7867    -3.9697    -0.3975 H       
  53 H53           -3.8766     3.3625     0.4888 H       
  54 H54           -2.4188     6.9772     1.9387 H       
  55 H55           -0.3213     5.8745     2.6012 H       
@<TRIPOS>BOND
   1    1    2 1
   2    1   26 1
   3    1   33 1
   4    1   34 1
   5    2    3 1
   6    2   24 1
   7    2   35 1
   8    3    4 1
   9    3   36 1
  10    3   37 1
  11    4    5 1
  12    4    8 1
  13    4   38 1
  14    5    6 am
  15    5   13 2
  16    6    7 1
  17    6   39 1
  18    7   28 ar
  19    7   32 ar
  20    8    9 1
  21    8   12 1
  22    9   10 ar
  23    9   14 ar
  24   10   11 1
  25   10   17 ar
  26   11   12 2
  27   11   40 1
  28   14   15 ar
  29   14   41 1
  30   15   16 ar
  31   15   42 1
  32   16   17 ar
  33   16   43 1
  34   17   18 1
  35   18   19 1
  36   18   20 2
  37   18   21 2
  38   19   22 1
  39   19   23 1
  40   19   44 1
  41   22   23 1
  42   22   45 1
  43   22   46 1
  44   23   47 1
  45   23   48 1
  46   24   25 1
  47   24   49 1
  48   24   50 1
  49   25   26 1
  50   25   51 1
  51   25   52 1
  52   26   27 2
  53   28   29 ar
  54   28   53 1
  55   29   30 ar
  56   30   31 ar
  57   30   54 1
  58   31   32 ar
  59   31   55 1

#	End of record

