#	Name: ASD01914121
#	Creating user name:	WinNT
#	Creation time:	15. 06. 2019 20:02

#	Modifying user name:	WinNT
#	Modification time:	15. 06. 2019 20:02

#	Program:	/corina/corina34_cracker 3.40 0067  02.08.2006

@<TRIPOS>MOLECULE
ASD01914121
  32   34    0    0    0
SMALL
NO_CHARGES


@<TRIPOS>ATOM
   1 N1            -0.0169     1.3954     0.0097 N.2     
   2 N2             0.0021    -0.0041     0.0020 N.pl3   
   3 C3             1.2675    -0.4442    -0.0124 C.2     
   4 C4             2.1011     0.6587    -0.0145 C.ar    
   5 C5             3.4995     0.8486    -0.0264 C.ar    
   6 C6             4.0034     2.1081    -0.0241 C.ar    
   7 C7             3.1731     3.2313    -0.0096 C.ar    
   8 C8             1.8213     3.1213     0.0028 C.ar    
   9 C9             1.2261     1.8414     0.0002 C.ar    
  10 C10           -1.1861    -0.8611     0.0095 C.3     
  11 C11           -2.0719    -0.4943     1.2018 C.3     
  12 C12           -3.2658    -1.3554     1.2094 C.1     
  13 C13           -4.2179    -2.0421     1.2154 C.1     
  14 C14           -5.3793    -2.8798     1.2227 C.ar    
  15 C15           -6.3375    -2.7262     2.2254 C.ar    
  16 C16           -7.4539    -3.5432     2.2187 C.ar    
  17 C17           -7.5777    -4.4884     1.2095 C.ar    
  18 C18           -6.5903    -4.5868     0.2468 C.ar    
  19 N19           -5.5389    -3.7933     0.2720 N.ar    
  20 H20            1.5809    -1.4777    -0.0207 H       
  21 H21            4.1639    -0.0028    -0.0369 H       
  22 H22            5.0745     2.2460    -0.0332 H       
  23 H23            3.6199     4.2146    -0.0080 H       
  24 H24            1.2041     4.0075     0.0145 H       
  25 H25           -1.7440    -0.7167    -0.9157 H       
  26 H26           -0.8811    -1.9043     0.0908 H       
  27 H27           -1.5140    -0.6387     2.1270 H       
  28 H28           -2.3770     0.5490     1.1205 H       
  29 H29           -6.2091    -1.9805     2.9960 H       
  30 H30           -8.2122    -3.4480     2.9818 H       
  31 H31           -8.4375    -5.1412     1.1770 H       
  32 H32           -6.6841    -5.3215    -0.5392 H       
@<TRIPOS>BOND
   1    1    2 1
   2    1    9 2
   3    2    3 1
   4    2   10 1
   5    3    4 2
   6    3   20 1
   7    4    5 ar
   8    4    9 ar
   9    5    6 ar
  10    5   21 1
  11    6    7 ar
  12    6   22 1
  13    7    8 ar
  14    7   23 1
  15    8    9 ar
  16    8   24 1
  17   10   11 1
  18   10   25 1
  19   10   26 1
  20   11   12 1
  21   11   27 1
  22   11   28 1
  23   12   13 3
  24   13   14 1
  25   14   15 ar
  26   14   19 ar
  27   15   16 ar
  28   15   29 1
  29   16   17 ar
  30   16   30 1
  31   17   18 ar
  32   17   31 1
  33   18   19 ar
  34   18   32 1

#	End of record

