#	Name: ASD04910155
#	Creating user name:	WinNT
#	Creation time:	15. 06. 2019 20:55

#	Modifying user name:	WinNT
#	Modification time:	15. 06. 2019 20:55

#	Program:	/corina/corina34_cracker 3.40 0067  02.08.2006

@<TRIPOS>MOLECULE
ASD04910155
  32   33    0    0    0
SMALL
NO_CHARGES


@<TRIPOS>ATOM
   1 C1            -0.0168     1.3852     0.0097 C.ar    
   2 C2             0.0021    -0.0041     0.0020 C.ar    
   3 C3             1.2203    -0.6608    -0.0131 C.ar    
   4 C4             2.3819     0.0990    -0.0201 C.ar    
   5 C5             2.2882     1.4768    -0.0118 C.ar    
   6 N6             1.1124     2.0745     0.0026 N.ar    
   7 N7             3.7070    -0.5605    -0.0358 N.pl3   
   8 O8             3.7822    -1.7762    -0.0426 O.2     
   9 O9             4.7222     0.1125    -0.0419 O.2     
  10 C10           -2.4741     1.4984     0.1176 C.2     
  11 N11           -3.3675     2.4490     0.0925 N.2     
  12 C12           -2.7518     3.6355    -0.0209 C.2     
  13 C13           -1.4242     3.4178    -0.0685 C.2     
  14 N14           -1.2408     2.0611     0.0191 N.pl3   
  15 C15           -3.4294     4.9800    -0.0846 C.3     
  16 C16           -3.3916     5.5026    -1.5221 C.3     
  17 C17           -4.8838     4.8402     0.3692 C.3     
  18 C18           -2.7006     5.9625     0.8345 C.3     
  19 H19           -0.9214    -0.5640     0.0082 H       
  20 H20            1.2661    -1.7398    -0.0190 H       
  21 H21            3.1890     2.0725    -0.0172 H       
  22 H22           -2.6799     0.4419     0.2063 H       
  23 H23           -0.6518     4.1672    -0.1588 H       
  24 H24           -3.9108     4.8027    -2.1768 H       
  25 H25           -3.8818     6.4751    -1.5682 H       
  26 H26           -2.3555     5.6022    -1.8454 H       
  27 H27           -4.9107     4.4679     1.3933 H       
  28 H28           -5.3739     5.8127     0.3232 H       
  29 H29           -5.4030     4.1403    -0.2855 H       
  30 H30           -1.6644     6.0621     0.5112 H       
  31 H31           -3.1907     6.9350     0.7884 H       
  32 H32           -2.7275     5.5902     1.8586 H       
@<TRIPOS>BOND
   1    1    2 ar
   2    1    6 ar
   3    1   14 1
   4    2    3 ar
   5    2   19 1
   6    3    4 ar
   7    3   20 1
   8    4    5 ar
   9    4    7 1
  10    5    6 ar
  11    5   21 1
  12    7    8 2
  13    7    9 2
  14   10   11 2
  15   10   14 1
  16   10   22 1
  17   11   12 1
  18   12   13 2
  19   12   15 1
  20   13   14 1
  21   13   23 1
  22   15   16 1
  23   15   18 1
  24   15   17 1
  25   16   24 1
  26   16   25 1
  27   16   26 1
  28   17   27 1
  29   17   28 1
  30   17   29 1
  31   18   30 1
  32   18   31 1
  33   18   32 1

#	End of record

