#	Name: ASD03092355
#	Creating user name:	WinNT
#	Creation time:	15. 06. 2019 20:32

#	Modifying user name:	WinNT
#	Modification time:	15. 06. 2019 20:32

#	Program:	/corina/corina34_cracker 3.40 0067  02.08.2006

@<TRIPOS>MOLECULE
ASD03092355
  58   60    0    0    0
SMALL
NO_CHARGES


@<TRIPOS>ATOM
   1 C1             0.3377     2.0153     0.1445 C.2     
   2 C2             0.5540     0.5261     0.2242 C.3     
   3 C3             2.0547     0.2278     0.2208 C.3     
   4 C4             2.2743    -1.2842     0.3018 C.3     
   5 O5             1.2900     2.7644     0.0902 O.2     
   6 N6            -0.9141     2.5145     0.1278 N.am    
   7 C7            -1.1244     3.9623     0.0503 C.3     
   8 S8            -4.9835     4.7562    -0.6387 S.3     
   9 C9            -4.5799     4.6083     1.0157 C.2     
  10 N10           -3.3134     4.3515     1.1494 N.2     
  11 C11           -2.6025     4.2557     0.0469 C.2     
  12 C12           -3.3091     4.4424    -1.0876 C.2     
  13 C13           -2.5485     5.3138    -4.6606 C.ar    
  14 C14           -3.0708     5.4006    -3.3883 C.ar    
  15 C15           -2.7735     4.3920    -2.4620 C.ar    
  16 C16           -1.9532     3.3345    -2.8772 C.ar    
  17 C17           -1.4749     3.3281    -4.1696 C.ar    
  18 N18           -1.7794     4.2994    -5.0103 N.ar    
  19 C19           -0.5917     2.1969    -4.6294 C.3     
  20 C20           -2.8652     6.3883    -5.6688 C.3     
  21 N21           -5.4737     4.7431     2.0624 N.3     
  22 C22           -6.8270     5.0318     1.5657 C.3     
  23 C23           -7.7929     5.1138     2.7507 C.3     
  24 O24           -7.3298     6.1076     3.6690 O.3     
  25 C25           -6.0150     5.8575     4.1732 C.3     
  26 C26           -5.0310     5.7830     3.0026 C.3     
  27 C27           -5.6045     6.9917     5.1144 C.3     
  28 C28           -9.1873     5.4931     2.2478 C.3     
  29 H29            0.1096     0.1431     1.1429 H       
  30 H30            0.0859     0.0444    -0.6342 H       
  31 H31            2.4991     0.6108    -0.6978 H       
  32 H32            2.5228     0.7094     1.0792 H       
  33 H33            1.8298    -1.6672     1.2204 H       
  34 H34            1.8061    -1.7659    -0.5567 H       
  35 H35            3.3434    -1.4967     0.2993 H       
  36 H36           -1.6758     1.9152     0.1672 H       
  37 H37           -0.6604     4.4434     0.9113 H       
  38 H38           -0.6757     4.3460    -0.8660 H       
  39 H39           -3.6989     6.2336    -3.1092 H       
  40 H40           -1.6994     2.5369    -2.1947 H       
  41 H41           -1.2085     1.4000    -5.0448 H       
  42 H42            0.0956     2.5601    -5.3935 H       
  43 H43           -0.0232     1.8125    -3.7826 H       
  44 H44           -2.1141     7.1759    -5.6083 H       
  45 H45           -2.8615     5.9589    -6.6706 H       
  46 H46           -3.8488     6.8071    -5.4566 H       
  47 H47           -6.8238     5.9824     1.0323 H       
  48 H48           -7.1446     4.2364     0.8916 H       
  49 H49           -7.8367     4.1470     3.2522 H       
  50 H50           -6.0071     4.9123     4.7160 H       
  51 H51           -4.0377     5.5359     3.3773 H       
  52 H52           -4.9991     6.7455     2.4922 H       
  53 H53           -6.3076     7.0467     5.9454 H       
  54 H54           -4.6024     6.8005     5.4983 H       
  55 H55           -5.6109     7.9359     4.5699 H       
  56 H56           -9.5381     4.7374     1.5451 H       
  57 H57           -9.8745     5.5513     3.0919 H       
  58 H58           -9.1425     6.4609     1.7483 H       
@<TRIPOS>BOND
   1    1    2 1
   2    1    5 2
   3    1    6 am
   4    2    3 1
   5    2   29 1
   6    2   30 1
   7    3    4 1
   8    3   31 1
   9    3   32 1
  10    4   33 1
  11    4   34 1
  12    4   35 1
  13    6    7 1
  14    6   36 1
  15    7   11 1
  16    7   37 1
  17    7   38 1
  18    8    9 1
  19    8   12 1
  20    9   10 2
  21    9   21 1
  22   10   11 1
  23   11   12 2
  24   12   15 1
  25   13   14 ar
  26   13   18 ar
  27   13   20 1
  28   14   15 ar
  29   14   39 1
  30   15   16 ar
  31   16   17 ar
  32   16   40 1
  33   17   18 ar
  34   17   19 1
  35   19   41 1
  36   19   42 1
  37   19   43 1
  38   20   44 1
  39   20   45 1
  40   20   46 1
  41   21   22 1
  42   21   26 1
  43   22   23 1
  44   22   47 1
  45   22   48 1
  46   23   24 1
  47   23   28 1
  48   23   49 1
  49   24   25 1
  50   25   26 1
  51   25   27 1
  52   25   50 1
  53   26   51 1
  54   26   52 1
  55   27   53 1
  56   27   54 1
  57   27   55 1
  58   28   56 1
  59   28   57 1
  60   28   58 1

#	End of record

