#	Name: ASD01410949
#	Creating user name:	WinNT
#	Creation time:	15. 06. 2019 19:19

#	Modifying user name:	WinNT
#	Modification time:	15. 06. 2019 19:19

#	Program:	/corina/corina34_cracker 3.40 0067  02.08.2006

@<TRIPOS>MOLECULE
ASD01410949
  44   46    0    0    0
SMALL
NO_CHARGES


@<TRIPOS>ATOM
   1 C1            -0.0268     1.3251    -0.2201 C.ar    
   2 C2             1.1510     2.0225    -0.4200 C.ar    
   3 C3             2.3670     1.4008    -0.2062 C.ar    
   4 C4             2.4062     0.0825     0.2073 C.ar    
   5 C5             1.2293    -0.6152     0.4073 C.ar    
   6 C6             0.0131     0.0053     0.1938 C.ar    
   7 Cl7           -1.5543     2.1073    -0.4815 Cl      
   8 P8             4.0023    -0.7328     0.4871 P.3     
   9 N9             4.5701    -1.3250    -0.9330 N.pl3   
  10 O10            4.9674     0.2467     1.0343 O.2     
  11 C11            5.7886    -1.9971    -0.9693 C.2     
  12 C12            6.3192    -2.5169    -2.1275 C.2     
  13 S13            7.8601    -3.2872    -1.7764 S.3     
  14 C14            7.7238    -2.8740    -0.0733 C.2     
  15 C15            6.5660    -2.1923     0.1485 C.2     
  16 C16            5.7182    -2.4430    -3.4028 C.2     
  17 O17            4.6448    -1.8847    -3.5385 O.2     
  18 O18            6.3338    -2.9914    -4.4721 O.3     
  19 C19            8.7213    -3.2115     0.9638 C.ar    
  20 C20            9.8797    -3.9108     0.6207 C.ar    
  21 C21           10.8069    -4.2230     1.5929 C.ar    
  22 C22           10.5902    -3.8445     2.9073 C.ar    
  23 C23            9.4427    -3.1509     3.2538 C.ar    
  24 C24            8.5114    -2.8272     2.2893 C.ar    
  25 O25            3.8116    -1.9408     1.5343 O.3     
  26 C26            3.3295    -1.7478     2.8656 C.3     
  27 Cl27          11.7615    -4.2414     4.1255 Cl      
  28 C28            3.6501     2.1604    -0.4244 C.3     
  29 H29            1.1205     3.0525    -0.7434 H       
  30 H30            1.2606    -1.6452     0.7303 H       
  31 H31           -0.9061    -0.5397     0.3504 H       
  32 H32            4.0568    -1.2068    -1.7475 H       
  33 H33            6.2788    -1.8358     1.1267 H       
  34 H34            5.8464    -2.8906    -5.3011 H       
  35 H35           10.0494    -4.2072    -0.4039 H       
  36 H36           11.7035    -4.7640     1.3287 H       
  37 H37            9.2790    -2.8587     4.2806 H       
  38 H38            7.6194    -2.2818     2.5599 H       
  39 H39            4.0018    -1.0783     3.4021 H       
  40 H40            2.3320    -1.3098     2.8309 H       
  41 H41            3.2869    -2.7082     3.3794 H       
  42 H42            3.9974     2.5674     0.5253 H       
  43 H43            4.4061     1.4878    -0.8296 H       
  44 H44            3.4750     2.9754    -1.1267 H       
@<TRIPOS>BOND
   1    1    2 ar
   2    1    6 ar
   3    1    7 1
   4    2    3 ar
   5    2   29 1
   6    3    4 ar
   7    3   28 1
   8    4    5 ar
   9    4    8 1
  10    5    6 ar
  11    5   30 1
  12    6   31 1
  13    8    9 1
  14    8   10 2
  15    8   25 1
  16    9   11 1
  17    9   32 1
  18   11   12 2
  19   11   15 1
  20   12   13 1
  21   12   16 1
  22   13   14 1
  23   14   15 2
  24   14   19 1
  25   15   33 1
  26   16   17 2
  27   16   18 1
  28   18   34 1
  29   19   20 ar
  30   19   24 ar
  31   20   21 ar
  32   20   35 1
  33   21   22 ar
  34   21   36 1
  35   22   23 ar
  36   22   27 1
  37   23   24 ar
  38   23   37 1
  39   24   38 1
  40   25   26 1
  41   26   39 1
  42   26   40 1
  43   26   41 1
  44   28   42 1
  45   28   43 1
  46   28   44 1

#	End of record

