#	Name: ASD03330580
#	Creating user name:	WinNT
#	Creation time:	15. 06. 2019 20:37

#	Modifying user name:	WinNT
#	Modification time:	15. 06. 2019 20:37

#	Program:	/corina/corina34_cracker 3.40 0067  02.08.2006

@<TRIPOS>MOLECULE
ASD03330580
  60   62    0    0    0
SMALL
NO_CHARGES


@<TRIPOS>ATOM
   1 C1            -0.0597     2.0022     1.7826 C.2     
   2 N2            -0.1482     0.7102     2.1978 N.pl3   
   3 C3             1.2168     2.1974     1.3509 C.2     
   4 N4             1.8823     1.0295     1.4896 N.2     
   5 C5             1.0692     0.1297     1.9919 C.2     
   6 C6             1.4149    -1.2776     2.2858 C.ar    
   7 C7             1.7730     3.4569     0.8258 C.2     
   8 O8             1.0702     4.4465     0.7487 O.2     
   9 C9             3.6134     4.7643    -0.0909 C.3     
  10 N10            3.0604     3.5122     0.4311 N.am    
  11 C11            3.3035     4.8750    -1.5851 C.3     
  12 C12            1.7929     4.7649    -1.8022 C.3     
  13 C13            3.7970     6.2249    -2.1097 C.3     
  14 C14            4.0105     3.7460    -2.3376 C.3     
  15 C15            5.1062     4.7786     0.1148 C.2     
  16 N16            5.7930     5.9312    -0.0122 N.am    
  17 O17            5.6896     3.7528     0.3948 O.2     
  18 C18            7.2525     5.9321     0.1146 C.3     
  19 C19           -1.3410     0.0821     2.7725 C.3     
  20 C20           -2.5563     0.4245     1.9051 C.3     
  21 C21           -3.1662     1.7432     2.3692 C.3     
  22 N22           -2.1329     2.6594     2.8558 N.3     
  23 C23           -1.1820     3.0075     1.7895 C.3     
  24 C24           -2.7324     3.8661     3.4410 C.3     
  25 C25            2.4215    -3.3582     1.6202 C.ar    
  26 C26            2.0636    -3.9160     2.8360 C.ar    
  27 C27            1.3771    -3.1612     3.7762 C.ar    
  28 C28            1.0521    -1.8476     3.5069 C.ar    
  29 C29            2.1011    -2.0434     1.3396 C.ar    
  30 F30            2.4503    -1.4999     0.1531 F       
  31 F31            2.3790    -5.2017     3.1055 F       
  32 Cl32           0.9319    -3.8691     5.2976 Cl      
  33 H33            3.1659     5.6069     0.4363 H       
  34 H34            3.6209     2.7229     0.4926 H       
  35 H35            1.2892     5.5692    -1.2660 H       
  36 H36            1.5721     4.8437    -2.8666 H       
  37 H37            1.4413     3.8032    -1.4284 H       
  38 H38            4.8412     6.3638    -1.8297 H       
  39 H39            3.7059     6.2479    -3.1957 H       
  40 H40            3.1955     7.0246    -1.6776 H       
  41 H41            3.6589     2.7843    -1.9639 H       
  42 H42            3.7897     3.8248    -3.4021 H       
  43 H43            5.0866     3.8245    -2.1830 H       
  44 H44            5.3210     6.7603    -0.1877 H       
  45 H45            7.5316     5.5669     1.1030 H       
  46 H46            7.6838     5.2832    -0.6476 H       
  47 H47            7.6281     6.9468    -0.0172 H       
  48 H48           -1.2060    -0.9991     2.8001 H       
  49 H49           -1.4983     0.4565     3.7841 H       
  50 H50           -2.2448     0.5155     0.8645 H       
  51 H51           -3.2988    -0.3688     1.9922 H       
  52 H52           -3.6917     2.2076     1.5347 H       
  53 H53           -3.8762     1.5459     3.1723 H       
  54 H54           -0.7782     4.0033     1.9721 H       
  55 H55           -1.6923     2.9908     0.8264 H       
  56 H56           -3.3722     3.5848     4.2775 H       
  57 H57           -1.9429     4.5293     3.7945 H       
  58 H58           -3.3270     4.3795     2.6854 H       
  59 H59            2.9561    -3.9501     0.8920 H       
  60 H60            0.5180    -1.2614     4.2400 H       
@<TRIPOS>BOND
   1    1    2 1
   2    1    3 2
   3    1   23 1
   4    2   19 1
   5    2    5 1
   6    3    4 1
   7    3    7 1
   8    4    5 2
   9    5    6 1
  10    6   29 ar
  11    6   28 ar
  12    7    8 2
  13    7   10 am
  14    9   10 1
  15    9   11 1
  16    9   15 1
  17    9   33 1
  18   10   34 1
  19   11   12 1
  20   11   13 1
  21   11   14 1
  22   12   35 1
  23   12   36 1
  24   12   37 1
  25   13   38 1
  26   13   39 1
  27   13   40 1
  28   14   41 1
  29   14   42 1
  30   14   43 1
  31   15   16 am
  32   15   17 2
  33   16   18 1
  34   16   44 1
  35   18   45 1
  36   18   46 1
  37   18   47 1
  38   19   20 1
  39   19   48 1
  40   19   49 1
  41   20   21 1
  42   20   50 1
  43   20   51 1
  44   21   22 1
  45   21   52 1
  46   21   53 1
  47   22   23 1
  48   22   24 1
  49   23   54 1
  50   23   55 1
  51   24   56 1
  52   24   57 1
  53   24   58 1
  54   25   26 ar
  55   25   29 ar
  56   25   59 1
  57   26   27 ar
  58   26   31 1
  59   27   28 ar
  60   27   32 1
  61   28   60 1
  62   29   30 1

#	End of record

