#	Name: ASD01510072
#	Creating user name:	WinNT
#	Creation time:	15. 06. 2019 19:21

#	Modifying user name:	WinNT
#	Modification time:	15. 06. 2019 19:21

#	Program:	/corina/corina34_cracker 3.40 0067  02.08.2006

@<TRIPOS>MOLECULE
ASD01510072
  53   55    0    0    0
SMALL
NO_CHARGES


@<TRIPOS>ATOM
   1 C1             2.3402     1.5123     4.0056 C.3     
   2 C2             2.3572     0.0054     3.9989 C.2     
   3 C3             1.7835    -0.6619     3.0013 C.2     
   4 C4             1.8001    -2.1322     2.9948 C.2     
   5 O5             2.3383    -2.7382     3.9013 O.2     
   6 N6             1.2188    -2.8082     1.9840 N.am    
   7 C7             1.3268    -4.1919     1.9211 C.ar    
   8 C8             0.6410    -4.9116     0.9417 C.ar    
   9 C9             0.7776    -6.2870     0.9167 C.ar    
  10 N10            1.5494    -6.8777     1.8161 N.ar    
  11 C11            2.1892    -6.1686     2.7354 C.ar    
  12 N12            2.0886    -4.8485     2.7892 N.ar    
  13 S13            3.2044    -7.0015     3.9102 S.3     
  14 C14            2.9798    -8.6674     3.3821 C.ar    
  15 C15            3.8265    -9.2348     2.4339 C.ar    
  16 C16            4.9547    -8.4316     1.8396 C.3     
  17 N17            3.6277   -10.4884     2.0619 N.ar    
  18 C18            2.6388   -11.2011     2.5797 C.ar    
  19 N19            1.8140   -10.6946     3.4837 N.ar    
  20 C20            1.9550    -9.4495     3.9074 C.ar    
  21 C21            1.0120    -8.8818     4.9367 C.3     
  22 N22            2.4620   -12.5122     2.1641 N.3     
  23 C23            1.3196   -13.1324     2.8495 C.3     
  24 C24            1.1096   -14.5479     2.3067 C.3     
  25 N25            2.3337   -15.3349     2.5116 N.3     
  26 C26            3.4761   -14.7147     1.8262 C.3     
  27 C27            3.6861   -13.2992     2.3691 C.3     
  28 C28            2.1464   -16.7238     2.0714 C.3     
  29 H29            1.3085     1.8639     4.0126 H       
  30 H30            2.8546     1.8775     4.8945 H       
  31 H31            2.8452     1.8853     3.1145 H       
  32 H32            2.8352    -0.5328     4.8041 H       
  33 H33            1.3055    -0.1237     2.1961 H       
  34 H34            0.7251    -2.3287     1.3005 H       
  35 H35            0.0173    -4.4055     0.2197 H       
  36 H36            0.2602    -6.8735     0.1719 H       
  37 H37            5.8510    -8.5599     2.4464 H       
  38 H38            5.1508    -8.7765     0.8244 H       
  39 H39            4.6783    -7.3775     1.8181 H       
  40 H40            1.4071    -9.0707     5.9349 H       
  41 H41            0.9108    -7.8074     4.7833 H       
  42 H42            0.0360    -9.3566     4.8364 H       
  43 H43            1.5196   -13.1794     3.9200 H       
  44 H44            0.4231   -12.5383     2.6725 H       
  45 H45            0.2809   -15.0204     2.8340 H       
  46 H46            0.8828   -14.4990     1.2417 H       
  47 H47            4.3727   -15.3088     2.0033 H       
  48 H48            3.2761   -14.6677     0.7558 H       
  49 H49            4.5148   -12.8267     1.8418 H       
  50 H50            3.9129   -13.3481     3.4341 H       
  51 H51            1.8952   -16.7381     1.0108 H       
  52 H52            3.0672   -17.2839     2.2342 H       
  53 H53            1.3378   -17.1801     2.6424 H       
@<TRIPOS>BOND
   1    1    2 1
   2    1   29 1
   3    1   30 1
   4    1   31 1
   5    2    3 2
   6    2   32 1
   7    3    4 1
   8    3   33 1
   9    4    5 2
  10    4    6 am
  11    6    7 1
  12    6   34 1
  13    7    8 ar
  14    7   12 ar
  15    8    9 ar
  16    8   35 1
  17    9   10 ar
  18    9   36 1
  19   10   11 ar
  20   11   12 ar
  21   11   13 1
  22   13   14 1
  23   14   15 ar
  24   14   20 ar
  25   15   16 1
  26   15   17 ar
  27   16   37 1
  28   16   38 1
  29   16   39 1
  30   17   18 ar
  31   18   19 ar
  32   18   22 1
  33   19   20 ar
  34   20   21 1
  35   21   40 1
  36   21   41 1
  37   21   42 1
  38   22   23 1
  39   22   27 1
  40   23   24 1
  41   23   43 1
  42   23   44 1
  43   24   25 1
  44   24   45 1
  45   24   46 1
  46   25   26 1
  47   25   28 1
  48   26   27 1
  49   26   47 1
  50   26   48 1
  51   27   49 1
  52   27   50 1
  53   28   51 1
  54   28   52 1
  55   28   53 1

#	End of record

