#	Name: ASD01911398
#	Creating user name:	WinNT
#	Creation time:	15. 06. 2019 19:57

#	Modifying user name:	WinNT
#	Modification time:	15. 06. 2019 19:57

#	Program:	/corina/corina34_cracker 3.40 0067  02.08.2006

@<TRIPOS>MOLECULE
ASD01911398
  44   46    0    0    0
SMALL
NO_CHARGES


@<TRIPOS>ATOM
   1 N1            -0.0169     1.3965     0.0097 N.2     
   2 N2             0.0021    -0.0041     0.0020 N.pl3   
   3 C3             1.2284     1.8226     0.0001 C.2     
   4 C4             2.0722     0.6950    -0.0140 C.2     
   5 C5             1.2909    -0.4070    -0.0125 C.2     
   6 C6             1.7727    -1.8348    -0.0243 C.3     
   7 C7             1.6661     3.2408     0.0036 C.ar    
   8 C8             3.0187     3.5548    -0.1133 C.ar    
   9 C9            -1.1724    -0.8798     0.0093 C.3     
  10 C10           -1.5891    -1.1729    -1.4090 C.2     
  11 O11           -2.6495    -1.9606    -1.6477 O.3     
  12 O12           -0.9688    -0.6990    -2.3312 O.2     
  13 C13            3.0473    -1.9360    -0.8645 C.3     
  14 C14            3.4212     4.8744    -0.1096 C.ar    
  15 C15            2.4827     5.8868     0.0101 C.ar    
  16 C16            1.1372     5.5790     0.1269 C.ar    
  17 C17            0.7253     4.2619     0.1179 C.ar    
  18 F18            2.8811     7.1777     0.0132 F       
  19 C19            3.5365    -3.3856    -0.8765 C.3     
  20 C20            3.8326    -3.8359     0.5554 C.3     
  21 C21            2.5579    -3.7347     1.3957 C.3     
  22 C22            2.0687    -2.2850     1.4077 C.3     
  23 C23            0.1211     6.6842     0.2577 C.3     
  24 H24            3.1521     0.7089    -0.0246 H       
  25 H25            1.0022    -2.4747    -0.4544 H       
  26 H26            3.7509     2.7664    -0.2062 H       
  27 H27           -0.9266    -1.8130     0.5160 H       
  28 H28           -1.9905    -0.3861     0.5337 H       
  29 H29           -2.8785    -2.1198    -2.5736 H       
  30 H30            2.8364    -1.6153    -1.8847 H       
  31 H31            3.8178    -1.2961    -0.4344 H       
  32 H32            4.4693     5.1187    -0.1997 H       
  33 H33           -0.3240     4.0227     0.2090 H       
  34 H34            2.7660    -4.0256    -1.3066 H       
  35 H35            4.4446    -3.4577    -1.4751 H       
  36 H36            4.1811    -4.8686     0.5469 H       
  37 H37            4.6030    -3.1960     0.9856 H       
  38 H38            1.7875    -4.3746     0.9656 H       
  39 H39            2.7689    -4.0554     2.4159 H       
  40 H40            2.8392    -1.6451     1.8378 H       
  41 H41            1.1607    -2.2130     2.0063 H       
  42 H42           -0.2201     6.9833    -0.7334 H       
  43 H43           -0.7277     6.3300     0.8427 H       
  44 H44            0.5762     7.5388     0.7585 H       
@<TRIPOS>BOND
   1    1    2 1
   2    1    3 2
   3    2    9 1
   4    2    5 1
   5    3    4 1
   6    3    7 1
   7    4    5 2
   8    4   24 1
   9    5    6 1
  10    6   13 1
  11    6   22 1
  12    6   25 1
  13    7    8 ar
  14    7   17 ar
  15    8   14 ar
  16    8   26 1
  17    9   10 1
  18    9   27 1
  19    9   28 1
  20   10   11 1
  21   10   12 2
  22   11   29 1
  23   13   19 1
  24   13   30 1
  25   13   31 1
  26   14   15 ar
  27   14   32 1
  28   15   16 ar
  29   15   18 1
  30   16   17 ar
  31   16   23 1
  32   17   33 1
  33   19   20 1
  34   19   34 1
  35   19   35 1
  36   20   21 1
  37   20   36 1
  38   20   37 1
  39   21   22 1
  40   21   38 1
  41   21   39 1
  42   22   40 1
  43   22   41 1
  44   23   42 1
  45   23   43 1
  46   23   44 1

#	End of record

