#	Name: ASD05730123
#	Creating user name:	WinNT
#	Creation time:	15. 06. 2019 21:02

#	Modifying user name:	WinNT
#	Modification time:	15. 06. 2019 21:02

#	Program:	/corina/corina34_cracker 3.40 0067  02.08.2006

@<TRIPOS>MOLECULE
ASD05730123
  74   79    0    0    0
SMALL
NO_CHARGES


@<TRIPOS>ATOM
   1 O1             2.3897     1.2260    -0.9947 O.3     
   2 C2             2.0968    -0.0935    -0.8454 C.ar    
   3 C3             1.0658    -0.6621    -1.5789 C.ar    
   4 C4             0.7674    -2.0019    -1.4275 C.ar    
   5 C5             1.5001    -2.7801    -0.5410 C.ar    
   6 C6             2.5324    -2.2103     0.1926 C.ar    
   7 C7             2.8329    -0.8715     0.0361 C.ar    
   8 N8             1.1979    -4.1386    -0.3866 N.pl3   
   9 C9             2.2161    -5.0599    -0.2370 C.ar    
  10 N10            1.9027    -6.3207     0.0204 N.ar    
  11 C11            2.8540    -7.2352     0.1707 C.ar    
  12 C12            4.2031    -6.8363     0.0506 C.ar    
  13 C13            4.4829    -5.4888    -0.2229 C.ar    
  14 N14            3.4736    -4.6498    -0.3620 N.ar    
  15 N15            2.5384    -8.5434     0.4380 N.am    
  16 C16            3.5071    -9.4668     0.5904 C.2     
  17 C17            4.9165    -9.0865     0.4725 C.2     
  18 C18            5.2411    -7.7830     0.2040 C.2     
  19 C19            1.1333    -8.9400     0.5595 C.3     
  20 O20            3.2095   -10.6238     0.8278 O.2     
  21 C21            5.9811   -10.1022     0.6406 C.2     
  22 C22            1.6662     1.9416    -1.9980 C.3     
  23 C23            0.3112     2.4179    -1.4424 C.3     
  24 C24            6.9430   -10.0364     1.5756 C.2     
  25 C25            7.7861   -11.2797     1.3607 C.3     
  26 C26            7.1015   -11.9598     0.1918 C.2     
  27 N27            6.0991   -11.2179    -0.1302 N.2     
  28 S28            9.4912   -10.8321     0.9332 S.o2    
  29 O29           10.1190   -10.2880     2.0860 O.2     
  30 C30           10.2278   -12.4527     0.5846 C.3     
  31 C31           -0.7078    -9.7477    -0.9312 C.ar    
  32 C32            0.6111    -9.3590    -0.7906 C.ar    
  33 N33            0.3198     3.8962    -1.4862 N.3     
  34 C34            1.2768     4.2639    -2.5611 C.3     
  35 C35            2.4209     3.2342    -2.3845 C.3     
  36 C36           -1.1869   -10.1320    -2.1699 C.ar    
  37 C37           -0.3469   -10.1276    -3.2675 C.ar    
  38 C38            0.9723    -9.7384    -3.1269 C.ar    
  39 C39            1.4512    -9.3542    -1.8887 C.ar    
  40 C40            7.1423    -8.9610     2.6124 C.3     
  41 O41            9.4727   -10.0751    -0.2693 O.2     
  42 C42           -1.6219    -9.7584     0.2668 C.3     
  43 F43           -2.8982   -10.1771    -0.1243 F       
  44 F44           -1.1175   -10.6381     1.2305 F       
  45 F45           -1.6988    -8.4699     0.8063 F       
  46 H46            0.4960    -0.0567    -2.2683 H       
  47 H47           -0.0358    -2.4442    -1.9981 H       
  48 H48            3.1027    -2.8149     0.8822 H       
  49 H49            3.6356    -0.4282     0.6066 H       
  50 H50            0.2736    -4.4326    -0.3846 H       
  51 H51            5.5023    -5.1463    -0.3218 H       
  52 H52            6.2746    -7.4830     0.1130 H       
  53 H53            1.0501    -9.7742     1.2561 H       
  54 H54            0.5488    -8.0977     0.9298 H       
  55 H55            1.5153     1.3130    -2.8756 H       
  56 H56           -0.4997     2.0328    -2.0606 H       
  57 H57            0.1914     2.0776    -0.4138 H       
  58 H58            7.7640   -11.9175     2.2443 H       
  59 H59            7.3948   -12.8874    -0.2772 H       
  60 H60            9.6911   -12.9266    -0.2373 H       
  61 H61           11.2745   -12.3244     0.3089 H       
  62 H62           10.1604   -13.0811     1.4727 H       
  63 H63           -0.6015     4.2575    -1.6832 H       
  64 H64            0.8127     4.1589    -3.5418 H       
  65 H65            1.6468     5.2789    -2.4161 H       
  66 H66            3.0956     3.5406    -1.5851 H       
  67 H67            2.9651     3.0983    -3.3191 H       
  68 H68           -2.2174   -10.4361    -2.2797 H       
  69 H69           -0.7210   -10.4286    -4.2349 H       
  70 H70            1.6286    -9.7350    -3.9846 H       
  71 H71            2.4818    -9.0504    -1.7788 H       
  72 H72            6.3160    -8.2518     2.5637 H       
  73 H73            7.1749    -9.4134     3.6035 H       
  74 H74            8.0801    -8.4400     2.4199 H       
@<TRIPOS>BOND
   1    1    2 1
   2    1   22 1
   3    2    3 ar
   4    2    7 ar
   5    3    4 ar
   6    3   46 1
   7    4    5 ar
   8    4   47 1
   9    5    6 ar
  10    5    8 1
  11    6    7 ar
  12    6   48 1
  13    7   49 1
  14    8    9 1
  15    8   50 1
  16    9   10 ar
  17    9   14 ar
  18   10   11 ar
  19   11   12 ar
  20   11   15 1
  21   12   13 ar
  22   12   18 1
  23   13   14 ar
  24   13   51 1
  25   15   16 am
  26   15   19 1
  27   16   17 1
  28   16   20 2
  29   17   18 2
  30   17   21 1
  31   18   52 1
  32   19   32 1
  33   19   53 1
  34   19   54 1
  35   21   24 2
  36   21   27 1
  37   22   23 1
  38   22   35 1
  39   22   55 1
  40   23   33 1
  41   23   56 1
  42   23   57 1
  43   24   25 1
  44   24   40 1
  45   25   26 1
  46   25   28 1
  47   25   58 1
  48   26   27 2
  49   26   59 1
  50   28   29 2
  51   28   30 1
  52   28   41 2
  53   30   60 1
  54   30   61 1
  55   30   62 1
  56   31   32 ar
  57   31   36 ar
  58   31   42 1
  59   32   39 ar
  60   33   34 1
  61   33   63 1
  62   34   35 1
  63   34   64 1
  64   34   65 1
  65   35   66 1
  66   35   67 1
  67   36   37 ar
  68   36   68 1
  69   37   38 ar
  70   37   69 1
  71   38   39 ar
  72   38   70 1
  73   39   71 1
  74   40   72 1
  75   40   73 1
  76   40   74 1
  77   42   43 1
  78   42   44 1
  79   42   45 1

#	End of record

