#	Name: ASD01510109
#	Creating user name:	WinNT
#	Creation time:	15. 06. 2019 19:21

#	Modifying user name:	WinNT
#	Modification time:	15. 06. 2019 19:21

#	Program:	/corina/corina34_cracker 3.40 0067  02.08.2006

@<TRIPOS>MOLECULE
ASD01510109
  29   30    0    0    0
SMALL
NO_CHARGES


@<TRIPOS>ATOM
   1 C1            -0.0178     1.4648     0.0101 C.3     
   2 N2             0.0021    -0.0041     0.0020 N.3     
   3 C3             0.7064    -0.5277     1.1807 C.3     
   4 C4             0.6362    -2.0566     1.1762 C.3     
   5 N5             1.2373    -2.5683    -0.0634 N.3     
   6 C6             0.5329    -2.0447    -1.2421 C.3     
   7 C7             0.6031    -0.5158    -1.2375 C.3     
   8 C8             1.2561    -3.9581    -0.0710 C.ar    
   9 C9             1.7882    -4.6329    -1.1633 C.ar    
  10 C10            1.8023    -6.0179    -1.1612 C.ar    
  11 C11            1.2820    -6.6842    -0.0630 C.ar    
  12 C12            0.7658    -5.9492     0.9949 C.ar    
  13 N13            0.7716    -4.6263     0.9654 N.ar    
  14 O14            0.2542    -6.5940     2.0735 O.3     
  15 H15            1.0047     1.8421     0.0024 H       
  16 H16           -0.5450     1.8259    -0.8730 H       
  17 H17           -0.5280     1.8163     0.9069 H       
  18 H18            1.7492    -0.2115     1.1515 H       
  19 H19            0.2352    -0.1447     2.0859 H       
  20 H20            1.1828    -2.4483     2.0340 H       
  21 H21           -0.4053    -2.3729     1.2329 H       
  22 H22            1.0041    -2.4277    -2.1472 H       
  23 H23           -0.5098    -2.3609    -1.2128 H       
  24 H24            0.0565    -0.1241    -2.0954 H       
  25 H25            1.6447    -0.1994    -1.2942 H       
  26 H26            2.1857    -4.0838    -2.0041 H       
  27 H27            2.2096    -6.5667    -1.9974 H       
  28 H28            1.2781    -7.7638    -0.0310 H       
  29 H29            0.9021    -6.7725     2.7688 H       
@<TRIPOS>BOND
   1    1    2 1
   2    1   15 1
   3    1   16 1
   4    1   17 1
   5    2    3 1
   6    2    7 1
   7    3    4 1
   8    3   18 1
   9    3   19 1
  10    4    5 1
  11    4   20 1
  12    4   21 1
  13    5    6 1
  14    5    8 1
  15    6    7 1
  16    6   22 1
  17    6   23 1
  18    7   24 1
  19    7   25 1
  20    8    9 ar
  21    8   13 ar
  22    9   10 ar
  23    9   26 1
  24   10   11 ar
  25   10   27 1
  26   11   12 ar
  27   11   28 1
  28   12   13 ar
  29   12   14 1
  30   14   29 1

#	End of record

