#	Name: ASD01510065
#	Creating user name:	WinNT
#	Creation time:	15. 06. 2019 19:21

#	Modifying user name:	WinNT
#	Modification time:	15. 06. 2019 19:21

#	Program:	/corina/corina34_cracker 3.40 0067  02.08.2006

@<TRIPOS>MOLECULE
ASD01510065
  31   32    0    0    0
SMALL
NO_CHARGES


@<TRIPOS>ATOM
   1 C1            -0.0173     1.4248     0.0099 C.3     
   2 O2             0.0021    -0.0041     0.0020 O.3     
   3 C3             0.6241    -0.6167     1.0387 C.ar    
   4 N4             1.1836     0.1011     2.0072 N.ar    
   5 C5             1.7934    -0.4903     3.0236 C.ar    
   6 N6             1.8709    -1.8093     3.1164 N.ar    
   7 C7             1.3339    -2.5896     2.1841 C.ar    
   8 C8             0.6803    -2.0043     1.1056 C.ar    
   9 O9             1.4175    -3.9385     2.2864 O.3     
  10 C10            2.1003    -4.4615     3.4275 C.3     
  11 N11            2.3645     0.2900     4.0136 N.3     
  12 C12            2.9894    -0.5463     5.0486 C.3     
  13 C13            3.6587     0.3548     6.0898 C.3     
  14 O14            2.6859     1.2515     6.6327 O.3     
  15 C15            2.0577     2.0818     5.6522 C.3     
  16 C16            1.3722     1.1982     4.6066 C.3     
  17 H17            1.0053     1.8021     0.0021 H       
  18 H18           -0.5445     1.7859    -0.8732 H       
  19 H19           -0.5275     1.7763     0.9067 H       
  20 H20            0.2344    -2.6132     0.3331 H       
  21 H21            1.5972    -4.1296     4.3357 H       
  22 H22            2.0949    -5.5508     3.3865 H       
  23 H23            3.1297    -4.1032     3.4308 H       
  24 H24            2.2272    -1.1572     5.5322 H       
  25 H25            3.7385    -1.1926     4.5912 H       
  26 H26            4.0742    -0.2589     6.8891 H       
  27 H27            4.4571     0.9267     5.6168 H       
  28 H28            1.3152     2.7172     6.1351 H       
  29 H29            2.8095     2.7040     5.1665 H       
  30 H30            0.9408     1.8254     3.8265 H       
  31 H31            0.5841     0.6152     5.0831 H       
@<TRIPOS>BOND
   1    1    2 1
   2    1   17 1
   3    1   18 1
   4    1   19 1
   5    2    3 1
   6    3    4 ar
   7    3    8 ar
   8    4    5 ar
   9    5    6 ar
  10    5   11 1
  11    6    7 ar
  12    7    8 ar
  13    7    9 1
  14    8   20 1
  15    9   10 1
  16   10   21 1
  17   10   22 1
  18   10   23 1
  19   11   12 1
  20   11   16 1
  21   12   13 1
  22   12   24 1
  23   12   25 1
  24   13   14 1
  25   13   26 1
  26   13   27 1
  27   14   15 1
  28   15   16 1
  29   15   28 1
  30   15   29 1
  31   16   30 1
  32   16   31 1

#	End of record

