#	Name: ASD05173005
#	Creating user name:	WinNT
#	Creation time:	15. 06. 2019 20:57

#	Modifying user name:	WinNT
#	Modification time:	15. 06. 2019 20:57

#	Program:	/corina/corina34_cracker 3.40 0067  02.08.2006

@<TRIPOS>MOLECULE
ASD05173005
  36   38    0    0    0
SMALL
NO_CHARGES


@<TRIPOS>ATOM
   1 C1             0.0021     1.3531     0.0586 C.ar    
   2 C2             0.0176    -0.0308     0.0855 C.ar    
   3 C3            -1.1659    -0.7325     0.0835 C.ar    
   4 C4            -2.3979    -0.0570     0.0538 C.ar    
   5 C5            -2.4093     1.3370     0.0308 C.ar    
   6 C6            -1.1984     2.0305     0.0372 C.ar    
   7 N7            -3.5186    -0.8235     0.0444 N.2     
   8 C8            -4.5937    -0.6055     0.7099 C.2     
   9 C9            -4.7477     0.6058     1.5917 C.3     
  10 C10           -4.6695     1.8344     0.7212 C.2     
  11 N11           -3.5711     2.0974     0.0111 N.am    
  12 O12           -5.6156     2.5912     0.6653 O.2     
  13 C13           -5.7062    -1.5651     0.6092 C.ar    
  14 C14           -6.8286    -1.4280     1.4310 C.ar    
  15 C15           -7.8668    -2.3306     1.3312 C.ar    
  16 C16           -7.7995    -3.3700     0.4205 C.ar    
  17 C17           -6.6909    -3.5129    -0.3968 C.ar    
  18 C18           -5.6476    -2.6145    -0.3128 C.ar    
  19 C19            1.3310    -0.7690     0.1165 C.3     
  20 C20            1.2992     2.1204     0.0590 C.3     
  21 I21           -6.6022    -5.0920    -1.7708 I       
  22 H22           -1.1479    -1.8121     0.1045 H       
  23 H23           -1.2016     3.1103     0.0170 H       
  24 H24           -5.7134     0.5733     2.0961 H       
  25 H25           -3.9467     0.6270     2.3306 H       
  26 H26           -3.5850     2.8797    -0.5622 H       
  27 H27           -6.8826    -0.6174     2.1427 H       
  28 H28           -8.7343    -2.2259     1.9659 H       
  29 H29           -8.6155    -4.0736     0.3470 H       
  30 H30           -4.7834    -2.7270    -0.9508 H       
  31 H31            1.6346    -0.9272     1.1513 H       
  32 H32            1.2180    -1.7326    -0.3803 H       
  33 H33            2.0904    -0.1812    -0.3991 H       
  34 H34            1.6239     2.2855    -0.9683 H       
  35 H35            1.1529     3.0811     0.5527 H       
  36 H36            2.0588     1.5494     0.5929 H       
@<TRIPOS>BOND
   1    1    2 ar
   2    1   20 1
   3    1    6 ar
   4    2    3 ar
   5    2   19 1
   6    3    4 ar
   7    3   22 1
   8    4    5 ar
   9    4    7 1
  10    5    6 ar
  11    5   11 1
  12    6   23 1
  13    7    8 2
  14    8    9 1
  15    8   13 1
  16    9   10 1
  17    9   24 1
  18    9   25 1
  19   10   11 am
  20   10   12 2
  21   11   26 1
  22   13   14 ar
  23   13   18 ar
  24   14   15 ar
  25   14   27 1
  26   15   16 ar
  27   15   28 1
  28   16   17 ar
  29   16   29 1
  30   17   18 ar
  31   17   21 1
  32   18   30 1
  33   19   31 1
  34   19   32 1
  35   19   33 1
  36   20   34 1
  37   20   35 1
  38   20   36 1

#	End of record

