#	Name: ASD04230100
#	Creating user name:	WinNT
#	Creation time:	15. 06. 2019 20:48

#	Modifying user name:	WinNT
#	Modification time:	15. 06. 2019 20:48

#	Program:	/corina/corina34_cracker 3.40 0067  02.08.2006

@<TRIPOS>MOLECULE
ASD04230100
  46   49    0    0    0
SMALL
NO_CHARGES


@<TRIPOS>ATOM
   1 C1            -0.0201     1.3790     0.0495 C.ar    
   2 C2            -0.0003    -0.0082     0.0381 C.ar    
   3 C3             1.1849    -0.6862     0.0294 C.ar    
   4 C4             2.3957     0.0212     0.0422 C.ar    
   5 C5             2.3815     1.4276     0.0205 C.ar    
   6 C6             1.1610     2.0997     0.0379 C.ar    
   7 C7             3.6343    -0.6710     0.0720 C.2     
   8 C8             4.7886     0.0708     0.2852 C.2     
   9 C9             4.6293     1.5213     0.4957 C.2     
  10 O10            3.5429     2.1221    -0.0390 O.3     
  11 C11            6.1166    -0.5650     0.3009 C.2     
  12 N12            7.2188     0.1818     0.5104 N.am    
  13 O13            6.2189    -1.7642     0.1248 O.2     
  14 C14            8.4677    -0.4350     0.6376 C.ar    
  15 C15            9.6062     0.1932     0.1477 C.ar    
  16 C16           10.8423    -0.4129     0.2713 C.ar    
  17 C17           10.9534    -1.6454     0.8825 C.ar    
  18 C18            9.8162    -2.2836     1.3779 C.ar    
  19 C19            8.5708    -1.6711     1.2579 C.ar    
  20 C20            9.9333    -3.6071     2.0340 C.ar    
  21 O21            5.4494     2.1572     1.1309 O.2     
  22 C22           10.6379    -4.6492     1.4045 C.ar    
  23 C23           10.7403    -5.8903     2.0347 C.ar    
  24 C24           10.1524    -6.0879     3.2666 C.ar    
  25 C25            9.4588    -5.0609     3.8854 C.ar    
  26 C26            9.3515    -3.8251     3.2797 C.ar    
  27 C27           11.2458    -4.4382     0.1252 C.1     
  28 N28           11.7281    -4.2708    -0.8896 N.1     
  29 O29            1.1309     3.4591     0.0425 O.3     
  30 C30           -0.1564     4.0794     0.0606 C.3     
  31 F31           -0.8484     3.6841     1.2104 F       
  32 F32           -0.0039     5.4700     0.0630 F       
  33 F33           -0.8770     3.6912    -1.0740 F       
  34 H34           -0.9655     1.9009     0.0629 H       
  35 H35           -0.9306    -0.5567     0.0366 H       
  36 H36            1.1898    -1.7661     0.0129 H       
  37 H37            3.6777    -1.7412    -0.0665 H       
  38 H38            7.1460     1.1470     0.5730 H       
  39 H39            9.5250     1.1577    -0.3315 H       
  40 H40           11.7240     0.0793    -0.1118 H       
  41 H41           11.9209    -2.1160     0.9770 H       
  42 H42            7.6872    -2.1609     1.6397 H       
  43 H43           11.2793    -6.6956     1.5578 H       
  44 H44           10.2330    -7.0495     3.7516 H       
  45 H45            9.0024    -5.2268     4.8500 H       
  46 H46            8.8090    -3.0295     3.7687 H       
@<TRIPOS>BOND
   1    1    2 ar
   2    1    6 ar
   3    1   34 1
   4    2    3 ar
   5    2   35 1
   6    3    4 ar
   7    3   36 1
   8    4    5 ar
   9    4    7 1
  10    5    6 ar
  11    5   10 1
  12    6   29 1
  13    7    8 2
  14    7   37 1
  15    8    9 1
  16    8   11 1
  17    9   10 1
  18    9   21 2
  19   11   12 am
  20   11   13 2
  21   12   14 1
  22   12   38 1
  23   14   15 ar
  24   14   19 ar
  25   15   16 ar
  26   15   39 1
  27   16   17 ar
  28   16   40 1
  29   17   18 ar
  30   17   41 1
  31   18   19 ar
  32   18   20 1
  33   19   42 1
  34   20   22 ar
  35   20   26 ar
  36   22   23 ar
  37   22   27 1
  38   23   24 ar
  39   23   43 1
  40   24   25 ar
  41   24   44 1
  42   25   26 ar
  43   25   45 1
  44   26   46 1
  45   27   28 3
  46   29   30 1
  47   30   31 1
  48   30   32 1
  49   30   33 1

#	End of record

