#	Name: ASD01150642
#	Creating user name:	WinNT
#	Creation time:	15. 06. 2019 19:04

#	Modifying user name:	WinNT
#	Modification time:	15. 06. 2019 19:04

#	Program:	/corina/corina34_cracker 3.40 0067  02.08.2006

@<TRIPOS>MOLECULE
ASD01150642
  42   44    0    0    0
SMALL
NO_CHARGES


@<TRIPOS>ATOM
   1 C1             2.0459     1.4055    -0.8413 C.ar    
   2 C2             2.0610     0.0248    -0.8464 C.ar    
   3 C3             0.3432    -0.0043     0.8294 C.ar    
   4 C4             0.3255     1.3764     0.8385 C.ar    
   5 C5             1.1773     2.0864     0.0020 C.ar    
   6 N6             1.1606     3.4862     0.0092 N.am    
   7 C7            -0.0136     4.1355    -0.0780 C.2     
   8 N8            -0.0664     5.4805    -0.0735 N.am    
   9 C9             1.0704     6.2011     0.0192 C.2     
  10 C10            2.3579     5.4971     0.1149 C.2     
  11 N11            2.3663     4.1900     0.1130 N.2     
  12 O12            1.0309     7.4175     0.0231 O.2     
  13 C13           -1.3594     6.1624    -0.1698 C.3     
  14 O14           -1.0451     3.4968    -0.1629 O.2     
  15 C15           -1.9131     6.3872     1.2136 C.ar    
  16 O16            3.5201     6.1942     0.2095 O.3     
  17 C17            4.7270     5.4344     0.2986 C.3     
  18 C18            1.2105    -0.6812    -0.0119 C.ar    
  19 C19           -2.8813     5.5381     1.7164 C.ar    
  20 C20           -3.3916     5.7413     2.9853 C.ar    
  21 C21           -2.9351     6.7951     3.7554 C.ar    
  22 C22           -1.9633     7.6494     3.2541 C.ar    
  23 C23           -1.4479     7.4398     1.9818 C.ar    
  24 F24            1.2265    -2.0321    -0.0189 F       
  25 O25           -1.5126     8.6865     4.0094 O.3     
  26 Cl26          -3.5776     7.0495     5.3479 Cl      
  27 C27           -0.3891     8.4328     4.8552 C.3     
  28 F28           -0.5013     8.2691     1.4904 F       
  29 H29            2.7122     1.9556    -1.4892 H       
  30 H30            2.7362    -0.5051    -1.5020 H       
  31 H31           -0.3187    -0.5567     1.4799 H       
  32 H32           -0.3512     1.9039     1.4945 H       
  33 H33           -1.2276     7.1225    -0.6688 H       
  34 H34           -2.0529     5.5472    -0.7432 H       
  35 H35            4.8307     4.8114    -0.5898 H       
  36 H36            5.5783     6.1115     0.3689 H       
  37 H37            4.6928     4.8006     1.1848 H       
  38 H38           -3.2401     4.7147     1.1168 H       
  39 H39           -4.1479     5.0763     3.3753 H       
  40 H40           -0.6382     7.6418     5.5627 H       
  41 H41            0.4606     8.1222     4.2473 H       
  42 H42           -0.1328     9.3409     5.4010 H       
@<TRIPOS>BOND
   1    1    2 ar
   2    1    5 ar
   3    1   29 1
   4    2   18 ar
   5    2   30 1
   6    3    4 ar
   7    3   18 ar
   8    3   31 1
   9    4    5 ar
  10    4   32 1
  11    5    6 1
  12    6    7 am
  13    6   11 1
  14    7    8 am
  15    7   14 2
  16    8    9 am
  17    8   13 1
  18    9   10 1
  19    9   12 2
  20   10   11 2
  21   10   16 1
  22   13   15 1
  23   13   33 1
  24   13   34 1
  25   15   19 ar
  26   15   23 ar
  27   16   17 1
  28   17   35 1
  29   17   36 1
  30   17   37 1
  31   18   24 1
  32   19   20 ar
  33   19   38 1
  34   20   21 ar
  35   20   39 1
  36   21   22 ar
  37   21   26 1
  38   22   23 ar
  39   22   25 1
  40   23   28 1
  41   25   27 1
  42   27   40 1
  43   27   41 1
  44   27   42 1

#	End of record

