#	Name: ASD02500485
#	Creating user name:	WinNT
#	Creation time:	15. 06. 2019 20:22

#	Modifying user name:	WinNT
#	Modification time:	15. 06. 2019 20:22

#	Program:	/corina/corina34_cracker 3.40 0067  02.08.2006

@<TRIPOS>MOLECULE
ASD02500485
  67   71    0    0    0
SMALL
NO_CHARGES


@<TRIPOS>ATOM
   1 N1             0.7860     4.1563    -1.4663 N.ar    
   2 C2             1.8940     3.9912    -0.7857 C.ar    
   3 C3             3.0329     3.4334    -1.3630 C.ar    
   4 C4             3.0121     3.0424    -2.6714 C.ar    
   5 C5             1.8203     3.2209    -3.3991 C.ar    
   6 C6             1.7236     2.8435    -4.7478 C.ar    
   7 C7             0.5531     3.0330    -5.4174 C.ar    
   8 C8            -0.5508     3.5971    -4.7817 C.ar    
   9 C9            -0.4921     3.9744    -3.4753 C.ar    
  10 C10            0.6987     3.7949    -2.7504 C.ar    
  11 S11           -1.9031     4.6860    -2.6960 S.o2    
  12 O12           -1.4517     5.8697    -2.0522 O.2     
  13 O13           -2.9436     4.6762    -3.6637 O.2     
  14 N14           -2.3735     3.6497    -1.4930 N.am    
  15 C15           -2.7485     2.3475    -1.8044 C.ar    
  16 C16           -2.2609     1.2847    -1.0488 C.ar    
  17 C17           -2.6302    -0.0052    -1.3545 C.ar    
  18 C18           -3.4959    -0.2478    -2.4250 C.ar    
  19 C19           -3.9838     0.8216    -3.1818 C.ar    
  20 C20           -3.6153     2.1097    -2.8675 C.ar    
  21 C21           -3.8934    -1.6294    -2.7556 C.2     
  22 O22           -5.0414    -1.8719    -3.0748 O.2     
  23 N23           -2.9842    -2.6229    -2.7039 N.am    
  24 C24           -3.3344    -3.9892    -3.1207 C.3     
  25 C25           -2.2821    -4.4776    -4.1219 C.3     
  26 N26           -0.9447    -4.3317    -3.5320 N.3     
  27 C27           -0.6307    -2.9216    -3.2655 C.3     
  28 C28           -1.6136    -2.3682    -2.2350 C.3     
  29 C29            0.0784    -4.9461    -4.3886 C.3     
  30 C30            1.4629    -4.7017    -3.7849 C.3     
  31 C31            1.5526    -5.3877    -2.4203 C.3     
  32 C32            2.9371    -5.1433    -1.8167 C.3     
  33 C33            4.0077    -5.7167    -2.7473 C.3     
  34 C34            3.9179    -5.0307    -4.1119 C.3     
  35 C35            2.5334    -5.2751    -4.7155 C.3     
  36 H36            1.9251     4.2958     0.2500 H       
  37 H37            3.9314     3.3108    -0.7765 H       
  38 H38            3.8858     2.6086    -3.1350 H       
  39 H39            2.5728     2.4059    -5.2516 H       
  40 H40            0.4796     2.7424    -6.4549 H       
  41 H41           -1.4678     3.7377    -5.3346 H       
  42 H42           -2.3874     3.9512    -0.5712 H       
  43 H43           -1.5919     1.4728    -0.2222 H       
  44 H44           -2.2514    -0.8293    -0.7682 H       
  45 H45           -4.6525     0.6373    -4.0096 H       
  46 H46           -3.9957     2.9366    -3.4489 H       
  47 H47           -3.3448    -4.6460    -2.2509 H       
  48 H48           -4.3166    -3.9874    -3.5934 H       
  49 H49           -2.4633    -5.5263    -4.3575 H       
  50 H50           -2.3442    -3.8835    -5.0337 H       
  51 H51            0.3857    -2.8419    -2.8801 H       
  52 H52           -0.7158    -2.3492    -4.1892 H       
  53 H53           -1.4586    -1.2952    -2.1225 H       
  54 H54           -1.4554    -2.8662    -1.2784 H       
  55 H55           -0.1030    -6.0186    -4.4591 H       
  56 H56            0.0326    -4.5037    -5.3837 H       
  57 H57            1.6225    -3.6302    -3.6641 H       
  58 H58            0.7900    -4.9792    -1.7574 H       
  59 H59            1.3930    -6.4592    -2.5411 H       
  60 H60            3.0968    -4.0718    -1.6959 H       
  61 H61            3.0011    -5.6320    -0.8445 H       
  62 H62            4.9940    -5.5426    -2.3172 H       
  63 H63            3.8480    -6.7882    -2.8681 H       
  64 H64            4.0776    -3.9592    -3.9911 H       
  65 H65            4.6806    -5.4392    -4.7748 H       
  66 H66            2.3738    -6.3466    -4.8363 H       
  67 H67            2.4695    -4.7864    -5.6877 H       
@<TRIPOS>BOND
   1    1    2 ar
   2    1   10 ar
   3    2    3 ar
   4    2   36 1
   5    3    4 ar
   6    3   37 1
   7    4    5 ar
   8    4   38 1
   9    5    6 ar
  10    5   10 ar
  11    6    7 ar
  12    6   39 1
  13    7    8 ar
  14    7   40 1
  15    8    9 ar
  16    8   41 1
  17    9   10 ar
  18    9   11 1
  19   11   12 2
  20   11   13 2
  21   11   14 am
  22   14   15 1
  23   14   42 1
  24   15   16 ar
  25   15   20 ar
  26   16   17 ar
  27   16   43 1
  28   17   18 ar
  29   17   44 1
  30   18   19 ar
  31   18   21 1
  32   19   20 ar
  33   19   45 1
  34   20   46 1
  35   21   22 2
  36   21   23 am
  37   23   24 1
  38   23   28 1
  39   24   25 1
  40   24   47 1
  41   24   48 1
  42   25   26 1
  43   25   49 1
  44   25   50 1
  45   26   27 1
  46   26   29 1
  47   27   28 1
  48   27   51 1
  49   27   52 1
  50   28   53 1
  51   28   54 1
  52   29   30 1
  53   29   55 1
  54   29   56 1
  55   30   31 1
  56   30   35 1
  57   30   57 1
  58   31   32 1
  59   31   58 1
  60   31   59 1
  61   32   33 1
  62   32   60 1
  63   32   61 1
  64   33   34 1
  65   33   62 1
  66   33   63 1
  67   34   35 1
  68   34   64 1
  69   34   65 1
  70   35   66 1
  71   35   67 1

#	End of record

