#	Name: ASD03731805
#	Creating user name:	WinNT
#	Creation time:	15. 06. 2019 20:46

#	Modifying user name:	WinNT
#	Modification time:	15. 06. 2019 20:46

#	Program:	/corina/corina34_cracker 3.40 0067  02.08.2006

@<TRIPOS>MOLECULE
ASD03731805
  43   45    0    0    0
SMALL
NO_CHARGES


@<TRIPOS>ATOM
   1 C1             0.1056     1.3993     0.8814 C.2     
   2 C2             0.0927    -0.0574     0.6442 C.ar    
   3 C3            -0.1039    -0.5553    -0.6466 C.ar    
   4 C4            -0.1148    -1.9149    -0.8639 C.ar    
   5 C5             0.0695    -2.7921     0.1989 C.ar    
   6 C6             0.2649    -2.3006     1.4846 C.ar    
   7 C7             0.2828    -0.9422     1.7090 C.ar    
   8 O8            -0.0550     2.1678    -0.0470 O.2     
   9 N9             0.2898     1.8775     2.1279 N.am    
  10 S10            0.3042     3.5119     2.3940 S.o2    
  11 O11            0.5431     3.6378     3.7891 O.2     
  12 O12            1.2338     4.0135     1.4434 O.2     
  13 C13           -1.3785     4.0520     1.9850 C.3     
  14 O14            0.0581    -4.1313    -0.0192 O.3     
  15 C15           -1.1717    -6.1795    -0.0129 C.ar    
  16 C16           -1.1268    -4.7857     0.0935 C.ar    
  17 C17           -2.2955    -4.0748     0.3149 C.ar    
  18 C18           -3.5004    -4.7420     0.4300 C.ar    
  19 C19           -3.5479    -6.1207     0.3251 C.ar    
  20 C20           -2.3913    -6.8415     0.1046 C.ar    
  21 C21            0.0730    -6.9486    -0.2559 C.ar    
  22 C22            0.3857    -8.0448     0.5459 C.ar    
  23 C23            1.5451    -8.7570     0.3149 C.ar    
  24 C24            2.3962    -8.3845    -0.7099 C.ar    
  25 C25            2.0910    -7.2971    -1.5086 C.ar    
  26 C26            0.9314    -6.5813    -1.2907 C.ar    
  27 H27           -0.2474     0.1254    -1.4727 H       
  28 H28           -0.2670    -2.3005    -1.8612 H       
  29 H29            0.4069    -2.9852     2.3078 H       
  30 H30            0.4391    -0.5611     2.7074 H       
  31 H31            0.4139     1.2643     2.8692 H       
  32 H32           -2.0915     3.5407     2.6318 H       
  33 H33           -1.4606     5.1288     2.1333 H       
  34 H34           -1.5945     3.8111     0.9442 H       
  35 H35           -2.2647    -2.9985     0.3981 H       
  36 H36           -4.4091    -4.1846     0.6029 H       
  37 H37           -4.4931    -6.6351     0.4164 H       
  38 H38           -2.4322    -7.9176     0.0233 H       
  39 H39           -0.2777    -8.3361     1.3468 H       
  40 H40            1.7884    -9.6066     0.9357 H       
  41 H41            3.3025    -8.9445    -0.8869 H       
  42 H42            2.7595    -7.0103    -2.3069 H       
  43 H43            0.6919    -5.7352    -1.9177 H       
@<TRIPOS>BOND
   1    1    2 1
   2    1    8 2
   3    1    9 am
   4    2    3 ar
   5    2    7 ar
   6    3    4 ar
   7    3   27 1
   8    4    5 ar
   9    4   28 1
  10    5    6 ar
  11    5   14 1
  12    6    7 ar
  13    6   29 1
  14    7   30 1
  15    9   10 am
  16    9   31 1
  17   10   11 2
  18   10   12 2
  19   10   13 1
  20   13   32 1
  21   13   33 1
  22   13   34 1
  23   14   16 1
  24   15   16 ar
  25   15   20 ar
  26   15   21 1
  27   16   17 ar
  28   17   18 ar
  29   17   35 1
  30   18   19 ar
  31   18   36 1
  32   19   20 ar
  33   19   37 1
  34   20   38 1
  35   21   22 ar
  36   21   26 ar
  37   22   23 ar
  38   22   39 1
  39   23   24 ar
  40   23   40 1
  41   24   25 ar
  42   24   41 1
  43   25   26 ar
  44   25   42 1
  45   26   43 1

#	End of record

