#	Name: ASD00170391
#	Creating user name:	WinNT
#	Creation time:	15. 06. 2019 18:32

#	Modifying user name:	WinNT
#	Modification time:	15. 06. 2019 18:32

#	Program:	/corina/corina34_cracker 3.40 0067  02.08.2006

@<TRIPOS>MOLECULE
ASD00170391
  37   40    0    0    0
SMALL
NO_CHARGES


@<TRIPOS>ATOM
   1 C1            -0.4504     2.8613    -1.2561 C.3     
   2 C2             4.5476     7.0849     0.2660 C.2     
   3 C3             3.2893     7.5538     0.3649 C.2     
   4 S4             3.3358     9.3070     0.5439 S.3     
   5 C5             5.0928     9.2695     0.4695 C.2     
   6 N6             5.4912     8.0501     0.3326 N.2     
   7 N7             5.9208    10.3773     0.5505 N.pl3   
   8 C8             4.5083     5.5968     0.1145 C.ar    
   9 C9             3.1892     5.1622     0.1229 C.ar    
  10 C10            2.3277     6.3883     0.2838 C.3     
  11 C11            5.5401     4.6674    -0.0231 C.ar    
  12 C12            5.2433     3.3254    -0.1508 C.ar    
  13 C13            3.9288     2.8968    -0.1415 C.ar    
  14 C14            2.8966     3.8165    -0.0041 C.ar    
  15 O15            1.6043     3.3954     0.0050 O.3     
  16 C16            0.9492     3.4130    -1.1669 C.2     
  17 O17            1.4818     3.8712    -2.1499 O.2     
  18 C18           -0.9792     2.9958    -2.6949 C.3     
  19 C19           -1.2780     1.5657    -3.1901 C.3     
  20 C20           -1.4991     0.7522    -1.8907 C.3     
  21 C21           -0.4462     1.3541    -0.9273 C.3     
  22 H22           -1.1057     3.3929    -0.5662 H       
  23 H23            5.5380    11.2621     0.6572 H       
  24 H24            6.8834    10.2681     0.5006 H       
  25 H25            1.7413     6.3191     1.2000 H       
  26 H26            1.6697     6.5020    -0.5778 H       
  27 H27            6.5684     4.9974    -0.0309 H       
  28 H28            6.0421     2.6064    -0.2572 H       
  29 H29            3.7040     1.8453    -0.2416 H       
  30 H30           -1.8917     3.5920    -2.7030 H       
  31 H31           -0.2236     3.4602    -3.3285 H       
  32 H32           -2.1781     1.5550    -3.8047 H       
  33 H33           -0.4293     1.1701    -3.7480 H       
  34 H34           -2.5073     0.9056    -1.5058 H       
  35 H35           -1.3063    -0.3071    -2.0606 H       
  36 H36            0.5368     0.9243    -1.1198 H       
  37 H37           -0.7393     1.1891     0.1095 H       
@<TRIPOS>BOND
   1    1   18 1
   2    1   16 1
   3    1   21 1
   4    1   22 1
   5    2    3 2
   6    2    8 1
   7    2    6 1
   8    3    4 1
   9    3   10 1
  10    4    5 1
  11    5    6 2
  12    5    7 1
  13    7   23 1
  14    7   24 1
  15    8    9 ar
  16    8   11 ar
  17    9   10 1
  18    9   14 ar
  19   10   25 1
  20   10   26 1
  21   11   12 ar
  22   11   27 1
  23   12   13 ar
  24   12   28 1
  25   13   14 ar
  26   13   29 1
  27   14   15 1
  28   15   16 1
  29   16   17 2
  30   18   19 1
  31   18   30 1
  32   18   31 1
  33   19   20 1
  34   19   32 1
  35   19   33 1
  36   20   21 1
  37   20   34 1
  38   20   35 1
  39   21   36 1
  40   21   37 1

#	End of record

