#	Name: ASD00190068
#	Creating user name:	WinNT
#	Creation time:	15. 06. 2019 18:33

#	Modifying user name:	WinNT
#	Modification time:	15. 06. 2019 18:33

#	Program:	/corina/corina34_cracker 3.40 0067  02.08.2006

@<TRIPOS>MOLECULE
ASD00190068
  36   39    0    0    0
SMALL
NO_CHARGES


@<TRIPOS>ATOM
   1 C1            -0.0552     1.3055     0.0486 C.ar    
   2 C2            -0.0007    -0.0615     0.2602 C.ar    
   3 C3             1.2080    -0.7325     0.2383 C.ar    
   4 C4             2.3806    -0.0355     0.0022 C.ar    
   5 C5             2.3234     1.3531    -0.2025 C.ar    
   6 C6             1.1053     2.0192    -0.1837 C.ar    
   7 O7             3.5750    -0.6776    -0.0498 O.3     
   8 C8             4.7095    -0.0311     0.5378 C.3     
   9 C9             4.7898     1.4964     0.3460 C.3     
  10 C10            3.6018     2.0746    -0.4205 C.2     
  11 N11            3.7019     3.1063    -1.1953 N.2     
  12 O12            4.9528     3.7490    -1.3605 O.3     
  13 C13            5.9985    -0.8108     0.4973 C.2     
  14 N14            6.0783    -1.9435    -0.2287 N.am    
  15 O15            6.9640    -0.4190     1.1180 O.2     
  16 C16            7.3005    -2.6148    -0.3457 C.ar    
  17 C17            8.1825    -2.6462     0.7265 C.ar    
  18 C18            9.3879    -3.3101     0.6080 C.ar    
  19 C19            9.7169    -3.9426    -0.5769 C.ar    
  20 C20            8.8408    -3.9131    -1.6463 C.ar    
  21 C21            7.6314    -3.2559    -1.5323 C.ar    
  22 C22            4.4679     0.9039     1.7217 C.3     
  23 H23           -1.0074     1.8148     0.0606 H       
  24 H24           -0.9126    -0.6099     0.4449 H       
  25 H25            1.2374    -1.7991     0.4056 H       
  26 H26            1.0650     3.0856    -0.3499 H       
  27 H27            5.7593     1.9617     0.1682 H       
  28 H28            4.9286     4.5092    -1.9576 H       
  29 H29            5.2886    -2.2934    -0.6700 H       
  30 H30            7.9264    -2.1518     1.6519 H       
  31 H31           10.0743    -3.3349     1.4414 H       
  32 H32           10.6604    -4.4604    -0.6673 H       
  33 H33            9.1007    -4.4081    -2.5703 H       
  34 H34            6.9476    -3.2332    -2.3679 H       
  35 H35            3.4445     1.0017     2.0839 H       
  36 H36            5.2433     0.9577     2.4858 H       
@<TRIPOS>BOND
   1    1    2 ar
   2    1    6 ar
   3    1   23 1
   4    2    3 ar
   5    2   24 1
   6    3    4 ar
   7    3   25 1
   8    4    5 ar
   9    4    7 1
  10    5    6 ar
  11    5   10 1
  12    6   26 1
  13    7    8 1
  14    8    9 1
  15    8   13 1
  16    8   22 1
  17    9   10 1
  18    9   22 1
  19    9   27 1
  20   10   11 2
  21   11   12 1
  22   12   28 1
  23   13   14 am
  24   13   15 2
  25   14   16 1
  26   14   29 1
  27   16   17 ar
  28   16   21 ar
  29   17   18 ar
  30   17   30 1
  31   18   19 ar
  32   18   31 1
  33   19   20 ar
  34   19   32 1
  35   20   21 ar
  36   20   33 1
  37   21   34 1
  38   22   35 1
  39   22   36 1

#	End of record

