#	Name: ASD00170706
#	Creating user name:	WinNT
#	Creation time:	15. 06. 2019 18:32

#	Modifying user name:	WinNT
#	Modification time:	15. 06. 2019 18:32

#	Program:	/corina/corina34_cracker 3.40 0067  02.08.2006

@<TRIPOS>MOLECULE
ASD00170706
  29   32    0    0    0
SMALL
NO_CHARGES


@<TRIPOS>ATOM
   1 C1            -0.0165     1.3688     0.0096 C.2     
   2 C2             0.0022    -0.0034    -0.0335 C.2     
   3 C3             1.3498    -0.5522    -0.0402 C.2     
   4 C4             2.3283     0.4252    -0.0014 C.2     
   5 S5             1.6083     2.0219     0.0428 S.3     
   6 C6             1.2216    -2.0212    -0.0874 C.2     
   7 C7            -0.2161    -2.3450    -0.1088 C.ar    
   8 C8            -0.8955    -3.5646    -0.1529 C.ar    
   9 C9            -2.2748    -3.5831    -0.1647 C.ar    
  10 C10           -2.9953    -2.3999    -0.1336 C.ar    
  11 C11           -2.3415    -1.1848    -0.0899 C.ar    
  12 C12           -0.9487    -1.1475    -0.0769 C.ar    
  13 O13            2.1392    -2.8226    -0.1054 O.2     
  14 C14           -3.4740     3.6714     0.0385 C.ar    
  15 N15           -2.5277     3.9304     0.9196 N.ar    
  16 C16           -1.4118     3.2235     0.9469 C.ar    
  17 C17           -1.2444     2.1863     0.0200 C.ar    
  18 C18           -2.2766     1.9481    -0.8969 C.ar    
  19 N19           -3.3585     2.7052    -0.8514 N.ar    
  20 N20            3.6794     0.1776     0.0023 N.pl3   
  21 H21           -0.3419    -4.4916    -0.1781 H       
  22 H22           -2.7974    -4.5277    -0.1988 H       
  23 H23           -4.0749    -2.4285    -0.1440 H       
  24 H24           -2.9080    -0.2656    -0.0661 H       
  25 H25           -4.3748     4.2672     0.0489 H       
  26 H26           -0.6412     3.4419     1.6714 H       
  27 H27           -2.1893     1.1589    -1.6289 H       
  28 H28            4.0052    -0.7357    -0.0234 H       
  29 H29            4.3077     0.9161     0.0307 H       
@<TRIPOS>BOND
   1    1    2 2
   2    1    5 1
   3    1   17 1
   4    2    3 1
   5    2   12 1
   6    3    4 2
   7    3    6 1
   8    4    5 1
   9    4   20 1
  10    6    7 1
  11    6   13 2
  12    7    8 ar
  13    7   12 ar
  14    8    9 ar
  15    8   21 1
  16    9   10 ar
  17    9   22 1
  18   10   11 ar
  19   10   23 1
  20   11   12 ar
  21   11   24 1
  22   14   15 ar
  23   14   19 ar
  24   14   25 1
  25   15   16 ar
  26   16   17 ar
  27   16   26 1
  28   17   18 ar
  29   18   19 ar
  30   18   27 1
  31   20   28 1
  32   20   29 1

#	End of record

