#	Name: ASD02038089
#	Creating user name:	WinNT
#	Creation time:	15. 06. 2019 20:16

#	Modifying user name:	WinNT
#	Modification time:	15. 06. 2019 20:16

#	Program:	/corina/corina34_cracker 3.40 0067  02.08.2006

@<TRIPOS>MOLECULE
ASD02038089
  44   46    0    0    0
SMALL
NO_CHARGES


@<TRIPOS>ATOM
   1 C1            -0.0167     1.3796     0.0096 C.ar    
   2 C2             0.0021    -0.0041     0.0020 C.ar    
   3 C3             1.1706     2.0903     0.0021 C.ar    
   4 C4             2.3781     1.4200    -0.0135 C.ar    
   5 C5             2.3999     0.0313    -0.0211 C.ar    
   6 C6             1.2066    -0.6796    -0.0126 C.ar    
   7 N7             3.6201    -0.6496    -0.0368 N.pl3   
   8 C8             3.6416    -2.1144    -0.0449 C.3     
   9 C9             5.0913    -2.6031    -0.0619 C.3     
  10 N10            5.1128    -4.0680    -0.0699 N.am    
  11 C11            5.1134    -4.9169    -1.2712 C.3     
  12 C12            5.1406    -6.3506    -0.7073 C.3     
  13 O13            5.1523    -6.1613     0.7373 O.3     
  14 C14            5.1408    -4.8529     1.0158 C.2     
  15 C15            6.4049    -7.0822    -1.1626 C.3     
  16 O16            6.3520    -8.4417    -0.7257 O.3     
  17 C17            7.4070    -9.2360    -1.0504 C.ar    
  18 C18            7.4203   -10.5661    -0.6577 C.ar    
  19 C19            8.4671    -8.7174    -1.7791 C.ar    
  20 C20            9.5387    -9.5241    -2.1089 C.ar    
  21 C21            9.5548   -10.8527    -1.7109 C.ar    
  22 C22            8.4919   -11.3729    -0.9875 C.ar    
  23 O23           10.6096   -11.6471    -2.0360 O.3     
  24 O24            5.1469    -4.4162     2.1497 O.2     
  25 Cl25          -1.5326     2.2254     0.0214 Cl      
  26 H26           -0.9261    -0.5562     0.0079 H       
  27 H27            1.1531     3.1701     0.0081 H       
  28 H28            3.3044     1.9752    -0.0200 H       
  29 H29            1.2207    -1.7594    -0.0182 H       
  30 H30            4.4529    -0.1523    -0.0425 H       
  31 H31            3.1420    -2.4900     0.8481 H       
  32 H32            3.1243    -2.4805    -0.9318 H       
  33 H33            5.5909    -2.2275    -0.9549 H       
  34 H34            5.6086    -2.2371     0.8250 H       
  35 H35            4.2087    -4.7528    -1.8565 H       
  36 H36            6.0009    -4.7259    -1.8745 H       
  37 H37            4.2496    -6.8987    -1.0136 H       
  38 H38            6.4702    -7.0523    -2.2502 H       
  39 H39            7.2807    -6.5962    -0.7326 H       
  40 H40            6.5930   -10.9710    -0.0938 H       
  41 H41            8.4545    -7.6828    -2.0889 H       
  42 H42           10.3638    -9.1205    -2.6769 H       
  43 H43            8.5047   -12.4073    -0.6773 H       
  44 H44           11.3192   -11.6470    -1.3790 H       
@<TRIPOS>BOND
   1    1    2 ar
   2    1    3 ar
   3    1   25 1
   4    2    6 ar
   5    2   26 1
   6    3    4 ar
   7    3   27 1
   8    4    5 ar
   9    4   28 1
  10    5    6 ar
  11    5    7 1
  12    6   29 1
  13    7    8 1
  14    7   30 1
  15    8    9 1
  16    8   31 1
  17    8   32 1
  18    9   10 1
  19    9   33 1
  20    9   34 1
  21   10   11 1
  22   10   14 am
  23   11   12 1
  24   11   35 1
  25   11   36 1
  26   12   13 1
  27   12   15 1
  28   12   37 1
  29   13   14 1
  30   14   24 2
  31   15   16 1
  32   15   38 1
  33   15   39 1
  34   16   17 1
  35   17   18 ar
  36   17   19 ar
  37   18   22 ar
  38   18   40 1
  39   19   20 ar
  40   19   41 1
  41   20   21 ar
  42   20   42 1
  43   21   22 ar
  44   21   23 1
  45   22   43 1
  46   23   44 1

#	End of record

