#	Name: ASD03091460
#	Creating user name:	WinNT
#	Creation time:	15. 06. 2019 20:30

#	Modifying user name:	WinNT
#	Modification time:	15. 06. 2019 20:30

#	Program:	/corina/corina34_cracker 3.40 0067  02.08.2006

@<TRIPOS>MOLECULE
ASD03091460
  47   49    0    0    0
SMALL
NO_CHARGES


@<TRIPOS>ATOM
   1 C1            -0.0074     1.3701    -0.2019 C.ar    
   2 C2             0.0066    -0.0115     0.0261 C.ar    
   3 C3             1.2208    -0.6742     0.2348 C.ar    
   4 C4             2.3972     0.0136     0.2192 C.ar    
   5 C5             2.4039     1.3905    -0.0058 C.ar    
   6 C6             1.2250     2.0670    -0.2148 C.ar    
   7 S7            -1.6412    -0.6299    -0.0080 S.3     
   8 C8            -2.2886     0.9701    -0.3240 C.2     
   9 C9            -1.3051     1.8738    -0.3856 C.2     
  10 C10           -3.7166     1.2760    -0.4917 C.2     
  11 O11           -4.0725     2.4188    -0.7090 O.2     
  12 N12           -4.6317     0.2903    -0.4047 N.am    
  13 N13           -7.4341    -0.4307    -2.3158 N.3     
  14 C14           -6.4090     0.5906    -2.0618 C.3     
  15 C15           -6.0548     0.5951    -0.5719 C.3     
  16 C16           -6.8961    -0.4717     0.1401 C.3     
  17 C17           -6.5954    -1.8355    -0.4942 C.3     
  18 C18           -6.9352    -1.7729    -1.9859 C.3     
  19 C19           -8.6699    -0.1331    -1.5786 C.3     
  20 C20           -8.3800    -0.1485    -0.0751 C.3     
  21 N21            3.6191     2.0882    -0.0189 N.am    
  22 C22            4.7246     1.5067    -0.5250 C.2     
  23 C23            6.0058     2.2924    -0.6357 C.3     
  24 O24            4.6883     0.3510    -0.8914 O.2     
  25 H25            1.2259    -1.7399     0.4102 H       
  26 H26            3.3281    -0.5093     0.3820 H       
  27 H27            1.2393     3.1328    -0.3890 H       
  28 H28           -1.4956     2.9204    -0.5719 H       
  29 H29           -4.3480    -0.6210    -0.2314 H       
  30 H30           -5.5176     0.3644    -2.6468 H       
  31 H31           -6.7929     1.5700    -2.3473 H       
  32 H32           -6.2727     1.5753    -0.1477 H       
  33 H33           -6.6551    -0.4912     1.2030 H       
  34 H34           -5.5384    -2.0710    -0.3699 H       
  35 H35           -7.2014    -2.6034    -0.0134 H       
  36 H36           -7.7022    -2.5126    -2.2156 H       
  37 H37           -6.0403    -1.9825    -2.5719 H       
  38 H38           -9.0380     0.8512    -1.8680 H       
  39 H39           -9.4226    -0.8863    -1.8115 H       
  40 H40           -8.9932    -0.9096     0.4073 H       
  41 H41           -8.6063     0.8292     0.3505 H       
  42 H42            3.6646     2.9897     0.3363 H       
  43 H43            6.3140     2.6263     0.3551 H       
  44 H44            6.7837     1.6605    -1.0644 H       
  45 H45            5.8465     3.1587    -1.2778 H       
  46 Cl46          11.7837     8.1587     6.2030 Cl      
  47 H47           11.7837     9.5287     6.2030 H       
@<TRIPOS>BOND
   1    1    2 ar
   2    1    6 ar
   3    1    9 1
   4    2    3 ar
   5    2    7 1
   6    3    4 ar
   7    3   25 1
   8    4    5 ar
   9    4   26 1
  10    5    6 ar
  11    5   21 1
  12    6   27 1
  13    7    8 1
  14    8    9 2
  15    8   10 1
  16    9   28 1
  17   10   11 2
  18   10   12 am
  19   12   15 1
  20   12   29 1
  21   13   14 1
  22   13   18 1
  23   13   19 1
  24   14   15 1
  25   14   30 1
  26   14   31 1
  27   15   16 1
  28   15   32 1
  29   16   17 1
  30   16   20 1
  31   16   33 1
  32   17   18 1
  33   17   34 1
  34   17   35 1
  35   18   36 1
  36   18   37 1
  37   19   20 1
  38   19   38 1
  39   19   39 1
  40   20   40 1
  41   20   41 1
  42   21   22 am
  43   21   42 1
  44   22   23 1
  45   22   24 2
  46   23   43 1
  47   23   44 1
  48   23   45 1
  49   46   47 1

#	End of record

