#	Name: ASD01120152
#	Creating user name:	WinNT
#	Creation time:	15. 06. 2019 18:59

#	Modifying user name:	WinNT
#	Modification time:	15. 06. 2019 18:59

#	Program:	/corina/corina34_cracker 3.40 0067  02.08.2006

@<TRIPOS>MOLECULE
ASD01120152
  31   33    0    0    0
SMALL
NO_CHARGES


@<TRIPOS>ATOM
   1 C1             0.0240     1.4288    -0.6625 C.ar    
   2 C2             0.0487     0.0291    -0.7686 C.ar    
   3 C3             1.2447    -0.6646    -0.6623 C.ar    
   4 C4             2.4330     0.0446    -0.4473 C.ar    
   5 C5             2.3921     1.4563    -0.3426 C.ar    
   6 C6             1.1711     2.1316    -0.4536 C.ar    
   7 N7             3.6175    -0.5764    -0.3364 N.ar    
   8 C8             4.7143     0.1137    -0.1349 C.ar    
   9 N9             4.7260     1.4332    -0.0298 N.ar    
  10 C10            3.6122     2.1456    -0.1245 C.ar    
  11 C11            5.9829     3.6906    -0.5664 C.ar    
  12 C12            4.8621     4.1897     0.0847 C.ar    
  13 C13            4.9592     5.3558     0.8334 C.ar    
  14 C14            6.1697     6.0152     0.9280 C.ar    
  15 C15            7.2843     5.5148     0.2778 C.ar    
  16 C16            7.1902     4.3544    -0.4679 C.ar    
  17 N17            3.6391     3.5203    -0.0136 N.pl3   
  18 Br18           6.3034     7.6031     1.9462 Br      
  19 C19           -1.2110    -0.7115    -0.9950 C.2     
  20 O20           -1.1954    -1.9224    -1.0876 O.2     
  21 O21           -2.3759    -0.0432    -1.0987 O.3     
  22 H22           -0.9152     1.9544    -0.7521 H       
  23 H23            1.2596    -1.7414    -0.7441 H       
  24 H24            1.1391     3.2082    -0.3741 H       
  25 H25            5.6502    -0.4186    -0.0505 H       
  26 H26            5.9116     2.7818    -1.1455 H       
  27 H27            4.0894     5.7467     1.3405 H       
  28 H28            8.2294     6.0320     0.3528 H       
  29 H29            8.0620     3.9664    -0.9738 H       
  30 H30            2.8092     4.0224    -0.0037 H       
  31 H31           -3.1729    -0.5704    -1.2466 H       
@<TRIPOS>BOND
   1    1    2 ar
   2    1    6 ar
   3    1   22 1
   4    2    3 ar
   5    2   19 1
   6    3    4 ar
   7    3   23 1
   8    4    5 ar
   9    4    7 ar
  10    5    6 ar
  11    5   10 ar
  12    6   24 1
  13    7    8 ar
  14    8    9 ar
  15    8   25 1
  16    9   10 ar
  17   10   17 1
  18   11   12 ar
  19   11   16 ar
  20   11   26 1
  21   12   13 ar
  22   12   17 1
  23   13   14 ar
  24   13   27 1
  25   14   15 ar
  26   14   18 1
  27   15   16 ar
  28   15   28 1
  29   16   29 1
  30   17   30 1
  31   19   20 2
  32   19   21 1
  33   21   31 1

#	End of record

