#	Name: ASD01730055
#	Creating user name:	WinNT
#	Creation time:	15. 06. 2019 19:23

#	Modifying user name:	WinNT
#	Modification time:	15. 06. 2019 19:23

#	Program:	/corina/corina34_cracker 3.40 0067  02.08.2006

@<TRIPOS>MOLECULE
ASD01730055
  36   38    0    0    0
SMALL
NO_CHARGES


@<TRIPOS>ATOM
   1 N1             0.1516     1.0850     0.3649 N.am    
   2 C2             0.0799    -0.2580     0.2773 C.2     
   3 S3             1.4902    -1.2059     0.4856 S.2     
   4 N4            -1.1021    -0.8548     0.0257 N.am    
   5 C5            -1.1620    -2.2410    -0.1512 C.ar    
   6 C6            -0.5051    -3.0847     0.7351 C.ar    
   7 C7            -0.5662    -4.4530     0.5577 C.ar    
   8 C8            -1.2801    -4.9832    -0.5013 C.ar    
   9 C9            -1.9353    -4.1459    -1.3856 C.ar    
  10 C10           -1.8833    -2.7770    -1.2102 C.ar    
  11 C11           -1.3438    -6.4767    -0.6925 C.3     
  12 N12            1.4423     2.9838     0.6655 N.2     
  13 C13            1.3331     1.6892     0.7379 C.2     
  14 S14            2.6739     0.6979     1.3066 S.3     
  15 C15            4.0560     1.6888     0.6845 C.3     
  16 C16            3.8268     3.1358     1.0402 C.ar    
  17 C17            2.5511     3.6934     1.0156 C.ar    
  18 C18            4.9137     3.9118     1.3971 C.ar    
  19 C19            4.7440     5.2416     1.7349 C.ar    
  20 C20            3.4803     5.8043     1.7179 C.ar    
  21 C21            2.3893     5.0431     1.3618 C.ar    
  22 H22           -0.6271     1.6265     0.1616 H       
  23 H23           -1.9112    -0.3230    -0.0328 H       
  24 H24            0.0533    -2.6713     1.5620 H       
  25 H25           -0.0556    -5.1096     1.2465 H       
  26 H26           -2.4918    -4.5631    -2.2119 H       
  27 H27           -2.3989    -2.1238    -1.8985 H       
  28 H28           -2.2015    -6.8760    -0.1511 H       
  29 H29           -1.4466    -6.7031    -1.7537 H       
  30 H30           -0.4296    -6.9311    -0.3108 H       
  31 H31            4.9848     1.3446     1.1394 H       
  32 H32            4.1196     1.5857    -0.3987 H       
  33 H33            5.9018     3.4762     1.4125 H       
  34 H34            5.5983     5.8412     2.0125 H       
  35 H35            3.3491     6.8427     1.9842 H       
  36 H36            1.4049     5.4871     1.3491 H       
@<TRIPOS>BOND
   1    1    2 am
   2    1   13 1
   3    1   22 1
   4    2    3 2
   5    2    4 am
   6    4    5 1
   7    4   23 1
   8    5    6 ar
   9    5   10 ar
  10    6    7 ar
  11    6   24 1
  12    7    8 ar
  13    7   25 1
  14    8    9 ar
  15    8   11 1
  16    9   10 ar
  17    9   26 1
  18   10   27 1
  19   11   28 1
  20   11   29 1
  21   11   30 1
  22   12   13 2
  23   12   17 1
  24   13   14 1
  25   14   15 1
  26   15   16 1
  27   15   31 1
  28   15   32 1
  29   16   17 ar
  30   16   18 ar
  31   17   21 ar
  32   18   19 ar
  33   18   33 1
  34   19   20 ar
  35   19   34 1
  36   20   21 ar
  37   20   35 1
  38   21   36 1

#	End of record

