#	Name: ASD01912344
#	Creating user name:	WinNT
#	Creation time:	15. 06. 2019 19:59

#	Modifying user name:	WinNT
#	Modification time:	15. 06. 2019 19:59

#	Program:	/corina/corina34_cracker 3.40 0067  02.08.2006

@<TRIPOS>MOLECULE
ASD01912344
  51   53    0    0    0
SMALL
NO_CHARGES


@<TRIPOS>ATOM
   1 C1            -0.0169     1.3937     0.0097 C.ar    
   2 C2             0.0021    -0.0041     0.0020 C.ar    
   3 C3             1.2200    -0.6586    -0.0132 C.ar    
   4 C4             2.3820     0.1017    -0.0202 C.ar    
   5 C5             2.2917     1.4816    -0.0120 C.ar    
   6 N6             1.1202     2.0835     0.0026 N.ar    
   7 C7             3.5515     2.3086    -0.0196 C.3     
   8 C8            -1.2694     2.0877     0.0194 C.1     
   9 C9            -2.2963     2.6567     0.0274 C.1     
  10 C10           -3.5488     3.3508     0.0371 C.2     
  11 N11           -3.6111     7.1939     1.1690 N.am    
  12 C12           -4.8645     6.4304     1.2214 C.3     
  13 C13           -4.8852     5.4347     0.0547 C.3     
  14 C14           -3.5723     4.6828     0.0444 C.2     
  15 C15           -2.2866     5.4804     0.0422 C.3     
  16 C16           -2.3311     6.4750     1.2091 C.3     
  17 C17           -3.6352     8.5385     1.0796 C.2     
  18 C18           -2.3438     9.3134     1.0265 C.3     
  19 C19           -2.6503    10.8091     0.9274 C.3     
  20 O20           -4.6962     9.1248     1.0420 O.2     
  21 O21           -1.4257    11.5439     0.8770 O.3     
  22 C22           -1.5211    12.8966     0.7871 C.ar    
  23 C23           -0.3721    13.6718     0.7341 C.ar    
  24 C24           -0.4721    15.0485     0.6422 C.ar    
  25 C25           -1.7186    15.6514     0.6037 C.ar    
  26 C26           -2.8636    14.8793     0.6569 C.ar    
  27 C27           -2.7678    13.5035     0.7425 C.ar    
  28 F28            0.6460    15.8051     0.5905 F       
  29 H29           -0.9211    -0.5645     0.0082 H       
  30 H30            1.2665    -1.7376    -0.0191 H       
  31 H31            3.3483    -0.3807    -0.0317 H       
  32 H32            3.8454     2.5135    -1.0490 H       
  33 H33            3.3719     3.2492     0.5010 H       
  34 H34            4.3485     1.7612     0.4837 H       
  35 H35           -4.4745     2.7944     0.0384 H       
  36 H36           -4.9231     5.8885     2.1653 H       
  37 H37           -5.7111     7.1115     1.1355 H       
  38 H38           -5.7089     4.7329     0.1857 H       
  39 H39           -5.0071     5.9731    -0.8852 H       
  40 H40           -1.4375     4.8082     0.1651 H       
  41 H41           -2.1928     6.0227    -0.8988 H       
  42 H42           -1.5099     7.1856     1.1152 H       
  43 H43           -2.2443     5.9358     2.1524 H       
  44 H44           -1.7665     9.1199     1.9306 H       
  45 H45           -1.7687     9.0018     0.1545 H       
  46 H46           -3.2276    11.0026     0.0233 H       
  47 H47           -3.2253    11.1207     1.7993 H       
  48 H48            0.5995    13.2012     0.7650 H       
  49 H49           -1.7958    16.7263     0.5323 H       
  50 H50           -3.8345    15.3515     0.6271 H       
  51 H51           -3.6633    12.9010     0.7795 H       
@<TRIPOS>BOND
   1    1    2 ar
   2    1    6 ar
   3    1    8 1
   4    2    3 ar
   5    2   29 1
   6    3    4 ar
   7    3   30 1
   8    4    5 ar
   9    4   31 1
  10    5    6 ar
  11    5    7 1
  12    7   32 1
  13    7   33 1
  14    7   34 1
  15    8    9 3
  16    9   10 1
  17   10   14 2
  18   10   35 1
  19   11   12 1
  20   11   16 1
  21   11   17 am
  22   12   13 1
  23   12   36 1
  24   12   37 1
  25   13   14 1
  26   13   38 1
  27   13   39 1
  28   14   15 1
  29   15   16 1
  30   15   40 1
  31   15   41 1
  32   16   42 1
  33   16   43 1
  34   17   18 1
  35   17   20 2
  36   18   19 1
  37   18   44 1
  38   18   45 1
  39   19   21 1
  40   19   46 1
  41   19   47 1
  42   21   22 1
  43   22   23 ar
  44   22   27 ar
  45   23   24 ar
  46   23   48 1
  47   24   25 ar
  48   24   28 1
  49   25   26 ar
  50   25   49 1
  51   26   27 ar
  52   26   50 1
  53   27   51 1

#	End of record

