#	Name: ASD00311177
#	Creating user name:	WinNT
#	Creation time:	15. 06. 2019 18:34

#	Modifying user name:	WinNT
#	Modification time:	15. 06. 2019 18:34

#	Program:	/corina/corina34_cracker 3.40 0067  02.08.2006

@<TRIPOS>MOLECULE
ASD00311177
  43   47    0    0    0
SMALL
NO_CHARGES


@<TRIPOS>ATOM
   1 C1            -0.0167     1.3777     0.0096 C.2     
   2 C2             0.0021    -0.0041     0.0020 C.2     
   3 C3             1.2586    -0.6766    -0.0136 C.2     
   4 C4             2.4314     0.0671    -0.0208 C.2     
   5 C5             2.3576     1.4748    -0.0125 C.2     
   6 N6             1.1652     2.0902     0.0022 N.am    
   7 C7            -1.3434    -0.5753     0.0118 C.2     
   8 C8            -2.3232     0.3267     0.0260 C.2     
   9 S9            -1.6791     1.9566     0.0358 S.3     
  10 O10            3.3827     2.1367    -0.0187 O.2     
  11 C11           -1.7253    -2.7076    -1.2024 C.ar    
  12 C12           -1.5961    -2.0352     0.0059 C.ar    
  13 C13           -1.7026    -2.7286     1.2213 C.ar    
  14 C14           -1.9334    -4.0675     1.2435 C.ar    
  15 C15           -2.0695    -4.7799     0.0387 C.ar    
  16 C16           -2.3080    -6.1648     0.0386 C.ar    
  17 C17           -2.4348    -6.8274    -1.1437 C.ar    
  18 C18           -2.3318    -6.1531    -2.3591 C.ar    
  19 C19           -2.1008    -4.8123    -2.3984 C.ar    
  20 C20           -1.9646    -4.0943    -1.1980 C.ar    
  21 O21           -1.6272    -2.0323    -2.3768 O.3     
  22 O22            1.3085    -2.0293    -0.0209 O.3     
  23 C23            3.7477    -0.6125    -0.0365 C.ar    
  24 C24            4.5930    -0.4749    -1.1371 C.ar    
  25 C25            5.8178    -1.1099    -1.1470 C.ar    
  26 C26            6.2085    -1.8832    -0.0659 C.ar    
  27 C27            5.3721    -2.0234     1.0297 C.ar    
  28 C28            4.1480    -1.3874     1.0518 C.ar    
  29 F29            7.4088    -2.5030    -0.0802 F       
  30 Cl30          -4.0153    -0.0609     0.0400 Cl      
  31 H31            1.1331     3.0597     0.0073 H       
  32 H32           -1.5992    -2.1906     2.1520 H       
  33 H33           -2.0122    -4.5854     2.1879 H       
  34 H34           -2.3899    -6.7011     0.9724 H       
  35 H35           -2.6177    -7.8918    -1.1399 H       
  36 H36           -2.4364    -6.7025    -3.2830 H       
  37 H37           -2.0229    -4.3026    -3.3474 H       
  38 H38           -0.7277    -1.9834    -2.7285 H       
  39 H39            2.2057    -2.3897    -0.0314 H       
  40 H40            4.2892     0.1274    -1.9805 H       
  41 H41            6.4730    -1.0043    -1.9991 H       
  42 H42            5.6810    -2.6276     1.8699 H       
  43 H43            3.4987    -1.4933     1.9083 H       
@<TRIPOS>BOND
   1    1    2 2
   2    1    6 1
   3    1    9 1
   4    2    3 1
   5    2    7 1
   6    3    4 2
   7    3   22 1
   8    4    5 1
   9    4   23 1
  10    5    6 am
  11    5   10 2
  12    6   31 1
  13    7    8 2
  14    7   12 1
  15    8    9 1
  16    8   30 1
  17   11   12 ar
  18   11   20 ar
  19   11   21 1
  20   12   13 ar
  21   13   14 ar
  22   13   32 1
  23   14   15 ar
  24   14   33 1
  25   15   16 ar
  26   15   20 ar
  27   16   17 ar
  28   16   34 1
  29   17   18 ar
  30   17   35 1
  31   18   19 ar
  32   18   36 1
  33   19   20 ar
  34   19   37 1
  35   21   38 1
  36   22   39 1
  37   23   24 ar
  38   23   28 ar
  39   24   25 ar
  40   24   40 1
  41   25   26 ar
  42   25   41 1
  43   26   27 ar
  44   26   29 1
  45   27   28 ar
  46   27   42 1
  47   28   43 1

#	End of record

