#	Name: ASD03730095
#	Creating user name:	WinNT
#	Creation time:	15. 06. 2019 20:43

#	Modifying user name:	WinNT
#	Modification time:	15. 06. 2019 20:43

#	Program:	/corina/corina34_cracker 3.40 0067  02.08.2006

@<TRIPOS>MOLECULE
ASD03730095
  58   63    0    0    0
SMALL
NO_CHARGES


@<TRIPOS>ATOM
   1 C1            -0.0203     1.5015     0.0182 C.2     
   2 C2            -0.0015    -0.0050    -0.0157 C.3     
   3 O3             1.0223     2.1207     0.0417 O.2     
   4 N4            -1.1958     2.1609     0.0166 N.am    
   5 O5             6.2053     2.8331     2.2456 O.3     
   6 C6             7.6211     2.7710     2.4995 C.3     
   7 O7             7.8227     1.4322     2.9894 O.3     
   8 C8             6.8206     0.6862     2.4379 C.ar    
   9 C9             5.8260     1.5481     1.9816 C.ar    
  10 C10            6.6749    -0.6809     2.2849 C.ar    
  11 C11            5.5375    -1.2052     1.6781 C.ar    
  12 C12            4.5470    -0.3346     1.2338 C.ar    
  13 C13            4.6921     1.0292     1.3794 C.ar    
  14 O14            5.2082    -2.5028     1.4170 O.3     
  15 C15            3.4501    -1.1905     0.6591 C.3     
  16 C16            3.7906    -2.5942     1.1776 C.3     
  17 N17            1.3857    -0.4761    -0.0135 N.am    
  18 C18            2.0878    -0.7438     1.1056 C.2     
  19 C19            3.4135    -1.1412    -0.8396 C.ar    
  20 C20            4.3331    -1.4276    -1.8237 C.ar    
  21 C21            3.9907    -1.2805    -3.1561 C.ar    
  22 C22            2.7232    -0.8445    -3.4970 C.ar    
  23 C23            1.7989    -0.5554    -2.5149 C.ar    
  24 C24            2.1346    -0.7011    -1.1711 C.ar    
  25 O25            1.6959    -0.6438     2.2490 O.2     
  26 C26           -1.2159     3.5553     0.1313 C.ar    
  27 C27           -2.3311     4.1943     0.6579 C.ar    
  28 C28           -2.3478     5.5705     0.7698 C.ar    
  29 C29           -1.2557     6.3126     0.3581 C.ar    
  30 C30           -0.1443     5.6796    -0.1669 C.ar    
  31 C31           -0.1189     4.3028    -0.2757 C.ar    
  32 C32           -3.5217     3.3865     1.1063 C.3     
  33 C33           -3.6990     3.5359     2.6186 C.3     
  34 C34           -4.7779     3.8908     0.3932 C.3     
  35 H35           -0.5188    -0.3946     0.8611 H       
  36 H36           -0.5025    -0.3544    -0.9184 H       
  37 H37           -2.0278     1.6689    -0.0640 H       
  38 H38            8.1826     2.9305     1.5790 H       
  39 H39            7.9071     3.5025     3.2553 H       
  40 H40            7.4489    -1.3458     2.6387 H       
  41 H41            3.9193     1.6942     1.0231 H       
  42 H42            3.5735    -3.3493     0.4220 H       
  43 H43            3.2546    -2.8057     2.1029 H       
  44 H44            5.3224    -1.7677    -1.5552 H       
  45 H45            4.7115    -1.5058    -3.9282 H       
  46 H46            2.4560    -0.7296    -4.5371 H       
  47 H47            0.8113    -0.2150    -2.7889 H       
  48 H48           -3.2148     6.0680     1.1788 H       
  49 H49           -1.2713     7.3889     0.4466 H       
  50 H50            0.7068     6.2619    -0.4878 H       
  51 H51            0.7516     3.8086    -0.6812 H       
  52 H52           -3.3615     2.3366     0.8612 H       
  53 H53           -3.8592     4.5858     2.8637 H       
  54 H54           -4.5602     2.9516     2.9429 H       
  55 H55           -2.8041     3.1766     3.1266 H       
  56 H56           -4.6515     3.7844    -0.6842 H       
  57 H57           -5.6390     3.3066     0.7175 H       
  58 H58           -4.9381     4.9408     0.6383 H       
@<TRIPOS>BOND
   1    1    2 1
   2    1    3 2
   3    1    4 am
   4    2   17 1
   5    2   35 1
   6    2   36 1
   7    4   26 1
   8    4   37 1
   9    5    6 1
  10    5    9 1
  11    6    7 1
  12    6   38 1
  13    6   39 1
  14    7    8 1
  15    8    9 ar
  16    8   10 ar
  17    9   13 ar
  18   10   11 ar
  19   10   40 1
  20   11   12 ar
  21   11   14 1
  22   12   13 ar
  23   12   15 1
  24   13   41 1
  25   14   16 1
  26   15   16 1
  27   15   18 1
  28   15   19 1
  29   16   42 1
  30   16   43 1
  31   17   18 am
  32   17   24 1
  33   18   25 2
  34   19   20 ar
  35   19   24 ar
  36   20   21 ar
  37   20   44 1
  38   21   22 ar
  39   21   45 1
  40   22   23 ar
  41   22   46 1
  42   23   24 ar
  43   23   47 1
  44   26   27 ar
  45   26   31 ar
  46   27   28 ar
  47   27   32 1
  48   28   29 ar
  49   28   48 1
  50   29   30 ar
  51   29   49 1
  52   30   31 ar
  53   30   50 1
  54   31   51 1
  55   32   33 1
  56   32   34 1
  57   32   52 1
  58   33   53 1
  59   33   54 1
  60   33   55 1
  61   34   56 1
  62   34   57 1
  63   34   58 1

#	End of record

