#	Name: ASD01910284
#	Creating user name:	WinNT
#	Creation time:	15. 06. 2019 19:55

#	Modifying user name:	WinNT
#	Modification time:	15. 06. 2019 19:55

#	Program:	/corina/corina34_cracker 3.40 0067  02.08.2006

@<TRIPOS>MOLECULE
ASD01910284
  44   47    0    0    0
SMALL
NO_CHARGES


@<TRIPOS>ATOM
   1 C1            -0.6739     2.3246     0.1871 C.ar    
   2 C2            -0.8068     0.9503     0.2567 C.ar    
   3 C3             0.3155     0.1428     0.3062 C.ar    
   4 C4             1.5758     0.7049     0.2859 C.ar    
   5 C5             1.7180     2.0888     0.2154 C.ar    
   6 C6             0.5838     2.8993     0.1662 C.ar    
   7 C7             3.0711     2.6986     0.1933 C.2     
   8 N8             3.3543     3.9844     0.1288 N.2     
   9 N9             4.6372     4.1063     0.1314 N.pl3   
  10 N10            5.1758     2.9388     0.1955 N.2     
  11 N11            4.2429     2.0492     0.2408 N.2     
  12 C12            5.3681     5.3745     0.0706 C.3     
  13 C13            6.2394     5.5224     1.3200 C.3     
  14 C14            6.9783     6.8618     1.2731 C.3     
  15 C15            7.8891     6.8951     0.0418 C.3     
  16 N16            7.0814     6.6094    -1.1518 N.am    
  17 C17            6.2607     5.3909    -1.1744 C.3     
  18 C18            7.0930     7.4492    -2.2059 C.2     
  19 C19            6.3799     7.0858    -3.4475 C.ar    
  20 O20            7.6903     8.5056    -2.1349 O.2     
  21 C21            5.6380     8.0476    -4.1366 C.ar    
  22 C22            4.9749     7.7034    -5.2949 C.ar    
  23 C23            5.0435     6.4048    -5.7762 C.ar    
  24 C24            5.7783     5.4459    -5.0957 C.ar    
  25 C25            6.4499     5.7808    -3.9396 C.ar    
  26 F26            4.3917     6.0727    -6.9120 F       
  27 F27            0.7136     4.2423     0.0973 F       
  28 H28           -1.5534     2.9499     0.1445 H       
  29 H29           -1.7907     0.5052     0.2728 H       
  30 H30            0.2051    -0.9301     0.3612 H       
  31 H31            2.4506     0.0727     0.3250 H       
  32 H32            4.6592     6.2009     0.0215 H       
  33 H33            5.6091     5.4863     2.2086 H       
  34 H34            6.9641     4.7090     1.3558 H       
  35 H35            6.2545     7.6746     1.2124 H       
  36 H36            7.5805     6.9768     2.1744 H       
  37 H37            8.3419     7.8823    -0.0511 H       
  38 H38            8.6694     6.1410     0.1441 H       
  39 H39            6.9083     4.5142    -1.1713 H       
  40 H40            5.6391     5.3856    -2.0697 H       
  41 H41            5.5836     9.0593    -3.7624 H       
  42 H42            4.4006     8.4463    -5.8284 H       
  43 H43            5.8281     4.4358    -5.4747 H       
  44 H44            7.0222     5.0332    -3.4105 H       
@<TRIPOS>BOND
   1    1    2 ar
   2    1    6 ar
   3    1   28 1
   4    2    3 ar
   5    2   29 1
   6    3    4 ar
   7    3   30 1
   8    4    5 ar
   9    4   31 1
  10    5    6 ar
  11    5    7 1
  12    6   27 1
  13    7    8 2
  14    7   11 1
  15    8    9 1
  16    9   10 1
  17    9   12 1
  18   10   11 2
  19   12   13 1
  20   12   17 1
  21   12   32 1
  22   13   14 1
  23   13   33 1
  24   13   34 1
  25   14   15 1
  26   14   35 1
  27   14   36 1
  28   15   16 1
  29   15   37 1
  30   15   38 1
  31   16   17 1
  32   16   18 am
  33   17   39 1
  34   17   40 1
  35   18   19 1
  36   18   20 2
  37   19   21 ar
  38   19   25 ar
  39   21   22 ar
  40   21   41 1
  41   22   23 ar
  42   22   42 1
  43   23   24 ar
  44   23   26 1
  45   24   25 ar
  46   24   43 1
  47   25   44 1

#	End of record

