#	Name: ASD05740169
#	Creating user name:	WinNT
#	Creation time:	15. 06. 2019 21:02

#	Modifying user name:	WinNT
#	Modification time:	15. 06. 2019 21:02

#	Program:	/corina/corina34_cracker 3.40 0067  02.08.2006

@<TRIPOS>MOLECULE
ASD05740169
  68   73    0    0    0
SMALL
NO_CHARGES


@<TRIPOS>ATOM
   1 C1             0.7638    -1.5335    -1.5893 C.3     
   2 N2             0.1631    -0.6852    -0.5505 N.3     
   3 C3            -1.1759    -1.0337    -0.3299 C.ar    
   4 C4            -1.4993    -2.3168     0.0891 C.ar    
   5 C5            -2.8192    -2.6606     0.3067 C.ar    
   6 C6            -3.8238    -1.7230     0.1069 C.ar    
   7 C7            -3.5020    -0.4388    -0.3123 C.ar    
   8 C8            -2.1807    -0.0924    -0.5252 C.ar    
   9 N9            -5.1619    -2.0727     0.3278 N.pl3   
  10 C10           -5.4852    -2.9711     1.3258 C.ar    
  11 N11           -4.5227    -3.4027     2.1335 N.ar    
  12 N12           -6.7444    -3.3658     1.4446 N.ar    
  13 C13           -7.0908    -4.2278     2.3918 C.ar    
  14 C14           -6.0929    -4.7127     3.2658 C.ar    
  15 C15           -4.7780    -4.2620     3.1039 C.ar    
  16 N16           -8.3853    -4.6545     2.5401 N.am    
  17 C17           -8.7189    -5.5283     3.5065 C.2     
  18 C18           -7.7630    -6.0429     4.4054 C.2     
  19 C19           -6.4620    -5.6620     4.3114 C.2     
  20 C20           -9.4198    -4.1511     1.6332 C.3     
  21 O21           -9.8801    -5.8846     3.6082 O.2     
  22 C22            0.9379    -0.7558     0.6962 C.3     
  23 C23            2.3720    -0.2926     0.4294 C.3     
  24 N24            2.9727    -1.1409    -0.6094 N.3     
  25 C25            2.1979    -1.0703    -1.8562 C.3     
  26 F26           -1.8667     1.1568    -0.9326 F       
  27 C27          -10.0463    -5.3247     0.8828 C.3     
  28 C28          -11.2632    -4.8075     0.1065 C.3     
  29 C29          -12.3572    -4.4477     1.1097 C.3     
  30 C30          -11.8125    -3.5475     2.1876 C.ar    
  31 C31          -10.4641    -3.4146     2.4308 C.ar    
  32 C32          -12.7235    -2.8334     2.9556 C.ar    
  33 C33          -12.2881    -1.9952     3.9608 C.ar    
  34 C34          -10.9339    -1.8644     4.2072 C.ar    
  35 C35          -10.0277    -2.5716     3.4450 C.ar    
  36 C36          -13.4945    -3.7299     0.3800 C.3     
  37 C37          -12.8977    -5.7289     1.7478 C.3     
  38 H38            0.7732    -2.5699    -1.2519 H       
  39 H39            0.1796    -1.4544    -2.5061 H       
  40 H40           -0.7186    -3.0466     0.2447 H       
  41 H41           -3.0701    -3.6594     0.6320 H       
  42 H42           -4.2834     0.2902    -0.4684 H       
  43 H43           -5.8616    -1.6839    -0.2201 H       
  44 H44           -3.9897    -4.6120     3.7538 H       
  45 H45           -8.0651    -6.7429     5.1703 H       
  46 H46           -5.7207    -6.0496     4.9945 H       
  47 H47           -8.9670    -3.4665     0.9161 H       
  48 H48            0.4806    -0.1098     1.4457 H       
  49 H49            0.9493    -1.7834     1.0596 H       
  50 H50            2.3626     0.7438     0.0920 H       
  51 H51            2.9562    -0.3717     1.3462 H       
  52 H52            3.9370    -0.8900    -0.7683 H       
  53 H53            2.6552    -1.7163    -2.6056 H       
  54 H54            2.1865    -0.0427    -2.2195 H       
  55 H55           -9.3197    -5.7464     0.1883 H       
  56 H56          -10.3618    -6.0886     1.5935 H       
  57 H57          -10.9845    -3.9227    -0.4659 H       
  58 H58          -11.6248    -5.5831    -0.5686 H       
  59 H59          -13.7815    -2.9351     2.7638 H       
  60 H60          -13.0026    -1.4432     4.5535 H       
  61 H61          -10.5870    -1.2109     4.9940 H       
  62 H62           -8.9701    -2.4692     3.6383 H       
  63 H63          -13.9044    -4.3857    -0.3880 H       
  64 H64          -14.2775    -3.4714     1.0929 H       
  65 H65          -13.1117    -2.8212    -0.0846 H       
  66 H66          -12.0885    -6.2488     2.2606 H       
  67 H67          -13.6790    -5.4762     2.4646 H       
  68 H68          -13.3107    -6.3745     0.9727 H       
@<TRIPOS>BOND
   1    1    2 1
   2    1   25 1
   3    1   38 1
   4    1   39 1
   5    2    3 1
   6    2   22 1
   7    3    4 ar
   8    3    8 ar
   9    4    5 ar
  10    4   40 1
  11    5    6 ar
  12    5   41 1
  13    6    7 ar
  14    6    9 1
  15    7    8 ar
  16    7   42 1
  17    8   26 1
  18    9   10 1
  19    9   43 1
  20   10   11 ar
  21   10   12 ar
  22   11   15 ar
  23   12   13 ar
  24   13   14 ar
  25   13   16 1
  26   14   15 ar
  27   14   19 1
  28   15   44 1
  29   16   17 am
  30   16   20 1
  31   17   18 1
  32   17   21 2
  33   18   19 2
  34   18   45 1
  35   19   46 1
  36   20   27 1
  37   20   31 1
  38   20   47 1
  39   22   23 1
  40   22   48 1
  41   22   49 1
  42   23   24 1
  43   23   50 1
  44   23   51 1
  45   24   25 1
  46   24   52 1
  47   25   53 1
  48   25   54 1
  49   27   28 1
  50   27   55 1
  51   27   56 1
  52   28   29 1
  53   28   57 1
  54   28   58 1
  55   29   30 1
  56   29   36 1
  57   29   37 1
  58   30   31 ar
  59   30   32 ar
  60   31   35 ar
  61   32   33 ar
  62   32   59 1
  63   33   34 ar
  64   33   60 1
  65   34   35 ar
  66   34   61 1
  67   35   62 1
  68   36   63 1
  69   36   64 1
  70   36   65 1
  71   37   66 1
  72   37   67 1
  73   37   68 1

#	End of record

