#	Name: ASD04882140
#	Creating user name:	WinNT
#	Creation time:	15. 06. 2019 20:54

#	Modifying user name:	WinNT
#	Modification time:	15. 06. 2019 20:54

#	Program:	/corina/corina34_cracker 3.40 0067  02.08.2006

@<TRIPOS>MOLECULE
ASD04882140
  74   78    0    0    0
SMALL
NO_CHARGES


@<TRIPOS>ATOM
   1 C1            -0.4600     1.4421    -0.7053 C.2     
   2 C2            -0.3546     0.0091    -0.4199 C.2     
   3 O3             0.6653    -0.4407     0.0692 O.2     
   4 N4            -1.3870    -0.8112    -0.6987 N.am    
   5 C5            -1.2481    -2.1948    -0.5284 C.ar    
   6 C6            -2.3460    -2.9648    -0.1331 C.ar    
   7 C7            -2.2097    -4.3375     0.0358 C.ar    
   8 C8            -0.9929    -4.9444    -0.1851 C.ar    
   9 C9             0.1085    -4.1807    -0.5803 C.ar    
  10 C10           -0.0272    -2.8004    -0.7565 C.ar    
  11 N11           -3.5776    -2.3554     0.0922 N.3     
  12 C12           -3.5181    -1.4624     1.2578 C.3     
  13 C13           -4.8644    -0.7536     1.4234 C.3     
  14 N14           -5.9263    -1.7564     1.5856 N.3     
  15 C15           -5.9859    -2.6494     0.4200 C.3     
  16 C16           -4.6396    -3.3582     0.2543 C.3     
  17 C17           -7.1617    -1.1451     1.8115 C.ar    
  18 C18           -7.3846    -0.4391     2.9872 C.ar    
  19 C19           -9.6089     0.0662     2.2589 C.ar    
  20 C20           -8.1683    -1.2368     0.8589 C.ar    
  21 C21           -8.6069     0.1643     3.2071 C.ar    
  22 C22           -9.3886    -0.6308     1.0853 C.ar    
  23 C23            1.4117    -4.8308    -0.8163 C.2     
  24 N24            1.5404    -6.1622    -0.6506 N.am    
  25 O25            2.3696    -4.1655    -1.1602 O.2     
  26 C26            2.8345    -6.8077    -0.8849 C.3     
  27 C27            2.7084    -8.3108    -0.6285 C.3     
  28 C28           -6.2937    -0.3325     4.0214 C.3     
  29 C29            0.5061     2.3799    -0.4731 C.2     
  30 C30           -0.0168     3.6113    -0.8943 C.2     
  31 C31           -1.2656     3.3754    -1.3603 C.2     
  32 O32           -1.5263     2.0661    -1.2490 O.3     
  33 C33            4.0599    -8.9850    -0.8732 C.3     
  34 N34            3.9392   -10.4243    -0.6278 N.am    
  35 Cl35          -2.3482     4.5711    -2.0022 Cl      
  36 C36            3.5741   -11.4111    -1.6509 C.3     
  37 C37            3.1507   -12.6757    -0.8713 C.3     
  38 C38            3.9269   -12.5032     0.4549 C.3     
  39 C39            4.1542   -11.0113     0.5622 C.2     
  40 O40            4.4762   -10.4289     1.5761 O.2     
  41 H41           -2.2262    -0.4436    -1.0174 H       
  42 H42           -3.0596    -4.9298     0.3413 H       
  43 H43           -0.8900    -6.0112    -0.0523 H       
  44 H44            0.8212    -2.2083    -1.0662 H       
  45 H45           -3.3020    -2.0462     2.1525 H       
  46 H46           -2.7329    -0.7213     1.1084 H       
  47 H47           -4.8319    -0.1126     2.3044 H       
  48 H48           -5.0677    -0.1482     0.5401 H       
  49 H49           -6.7711    -3.3905     0.5694 H       
  50 H50           -6.2020    -2.0655    -0.4748 H       
  51 H51           -4.6720    -3.9992    -0.6266 H       
  52 H52           -4.4363    -3.9636     1.1377 H       
  53 H53          -10.5642     0.5389     2.4336 H       
  54 H54           -7.9968    -1.7811    -0.0581 H       
  55 H55           -8.7808     0.7133     4.1208 H       
  56 H56          -10.1732    -0.7055     0.3469 H       
  57 H57            0.7763    -6.6929    -0.3762 H       
  58 H58            3.1428    -6.6398    -1.9168 H       
  59 H59            3.5788    -6.3852    -0.2100 H       
  60 H60            2.4001    -8.4788     0.4034 H       
  61 H61            1.9641    -8.7334    -1.3035 H       
  62 H62           -5.7342     0.5899     3.8656 H       
  63 H63           -6.7366    -0.3250     5.0173 H       
  64 H64           -5.6211    -1.1854     3.9293 H       
  65 H65            1.4833     2.2067    -0.0471 H       
  66 H66            0.4829     4.5679    -0.8540 H       
  67 H67            4.3682    -8.8171    -1.9052 H       
  68 H68            4.8042    -8.5625    -0.1983 H       
  69 H69            2.7426   -11.0420    -2.2513 H       
  70 H70            4.4318   -11.6297    -2.2871 H       
  71 H71            2.0750   -12.6836    -0.6955 H       
  72 H72            3.4658   -13.5794    -1.3930 H       
  73 H73            3.3321   -12.8626     1.2946 H       
  74 H74            4.8810   -13.0283     0.4096 H       
@<TRIPOS>BOND
   1    1    2 1
   2    1   29 2
   3    1   32 1
   4    2    3 2
   5    2    4 am
   6    4    5 1
   7    4   41 1
   8    5    6 ar
   9    5   10 ar
  10    6    7 ar
  11    6   11 1
  12    7    8 ar
  13    7   42 1
  14    8    9 ar
  15    8   43 1
  16    9   10 ar
  17    9   23 1
  18   10   44 1
  19   11   12 1
  20   11   16 1
  21   12   13 1
  22   12   45 1
  23   12   46 1
  24   13   14 1
  25   13   47 1
  26   13   48 1
  27   14   15 1
  28   14   17 1
  29   15   16 1
  30   15   49 1
  31   15   50 1
  32   16   51 1
  33   16   52 1
  34   17   18 ar
  35   17   20 ar
  36   18   21 ar
  37   18   28 1
  38   19   21 ar
  39   19   22 ar
  40   19   53 1
  41   20   22 ar
  42   20   54 1
  43   21   55 1
  44   22   56 1
  45   23   24 am
  46   23   25 2
  47   24   26 1
  48   24   57 1
  49   26   27 1
  50   26   58 1
  51   26   59 1
  52   27   33 1
  53   27   60 1
  54   27   61 1
  55   28   62 1
  56   28   63 1
  57   28   64 1
  58   29   30 1
  59   29   65 1
  60   30   31 2
  61   30   66 1
  62   31   32 1
  63   31   35 1
  64   33   34 1
  65   33   67 1
  66   33   68 1
  67   34   36 1
  68   34   39 am
  69   36   37 1
  70   36   69 1
  71   36   70 1
  72   37   38 1
  73   37   71 1
  74   37   72 1
  75   38   39 1
  76   38   73 1
  77   38   74 1
  78   39   40 2

#	End of record

