#	Name: ASD02562056
#	Creating user name:	WinNT
#	Creation time:	15. 06. 2019 20:25

#	Modifying user name:	WinNT
#	Modification time:	15. 06. 2019 20:25

#	Program:	/corina/corina34_cracker 3.40 0067  02.08.2006

@<TRIPOS>MOLECULE
ASD02562056
  44   47    0    0    0
SMALL
NO_CHARGES


@<TRIPOS>ATOM
   1 C1             0.1360     1.3887     1.1085 C.2     
   2 C2             0.1570    -0.0175     1.0957 C.2     
   3 C3             1.2854    -0.6789     0.7695 C.2     
   4 N4             2.4259     0.0060     0.4462 N.pl3   
   5 C5             2.4354     1.3822     0.4496 C.2     
   6 C6             1.2597     2.0842     0.7897 C.2     
   7 C7             3.6783    -0.4086     0.0861 C.2     
   8 C8             4.4300     0.7281    -0.1239 C.2     
   9 N9             3.6442     1.7958     0.1057 N.2     
  10 N10            4.1124    -1.7289    -0.0436 N.3     
  11 C11            5.8544     0.7669    -0.5313 C.ar    
  12 C12            2.9890    -2.6671     0.0818 C.3     
  13 C13            3.3297    -3.9705    -0.6435 C.3     
  14 C14            2.1597    -4.9477    -0.5129 C.3     
  15 C15            1.9018    -5.2397     0.9666 C.3     
  16 C16            1.5610    -3.9364     1.6919 C.3     
  17 C17            2.7311    -2.9592     1.5613 C.3     
  18 C18            6.3121     1.7764    -1.3777 C.ar    
  19 C19            7.6384     1.8098    -1.7544 C.ar    
  20 C20            8.5174     0.8398    -1.2924 C.ar    
  21 C21            8.0653    -0.1667    -0.4502 C.ar    
  22 C22            6.7416    -0.2026    -0.0645 C.ar    
  23 O23            9.8239     0.8755    -1.6660 O.3     
  24 H24           -0.7714     1.9144     1.3665 H       
  25 H25           -0.7355    -0.5703     1.3490 H       
  26 H26            1.2899    -1.7589     0.7634 H       
  27 H27            1.2525     3.1642     0.7969 H       
  28 H28            4.6014    -1.8648    -0.9156 H       
  29 H29            2.0964    -2.2267    -0.3626 H       
  30 H30            3.5135    -3.7625    -1.6976 H       
  31 H31            4.2223    -4.4110    -0.1991 H       
  32 H32            1.2671    -4.5073    -0.9573 H       
  33 H33            2.4024    -5.8763    -1.0296 H       
  34 H34            1.0682    -5.9359     1.0596 H       
  35 H35            2.7943    -5.6802     1.4110 H       
  36 H36            0.6685    -3.4959     1.2475 H       
  37 H37            1.3773    -4.1444     2.7459 H       
  38 H38            3.6236    -3.3996     2.0057 H       
  39 H39            2.4883    -2.0306     2.0780 H       
  40 H40            5.6286     2.5310    -1.7381 H       
  41 H41            7.9935     2.5913    -2.4098 H       
  42 H42            8.7518    -0.9202    -0.0932 H       
  43 H43            6.3906    -0.9858     0.5911 H       
  44 H44           10.3887     1.3892    -1.0727 H       
@<TRIPOS>BOND
   1    1    2 1
   2    1    6 2
   3    1   24 1
   4    2    3 2
   5    2   25 1
   6    3    4 1
   7    3   26 1
   8    4    5 1
   9    4    7 1
  10    5    6 1
  11    5    9 2
  12    6   27 1
  13    7    8 2
  14    7   10 1
  15    8    9 1
  16    8   11 1
  17   10   12 1
  18   10   28 1
  19   11   18 ar
  20   11   22 ar
  21   12   13 1
  22   12   17 1
  23   12   29 1
  24   13   14 1
  25   13   30 1
  26   13   31 1
  27   14   15 1
  28   14   32 1
  29   14   33 1
  30   15   16 1
  31   15   34 1
  32   15   35 1
  33   16   17 1
  34   16   36 1
  35   16   37 1
  36   17   38 1
  37   17   39 1
  38   18   19 ar
  39   18   40 1
  40   19   20 ar
  41   19   41 1
  42   20   21 ar
  43   20   23 1
  44   21   22 ar
  45   21   42 1
  46   22   43 1
  47   23   44 1

#	End of record

