#	Name: ASD03160004
#	Creating user name:	WinNT
#	Creation time:	15. 06. 2019 20:33

#	Modifying user name:	WinNT
#	Modification time:	15. 06. 2019 20:33

#	Program:	/corina/corina34_cracker 3.40 0067  02.08.2006

@<TRIPOS>MOLECULE
ASD03160004
  72   73    0    0    0
SMALL
NO_CHARGES


@<TRIPOS>ATOM
   1 O1            -0.0173     1.4248     0.0099 O.3     
   2 C2             0.0021    -0.0041     0.0020 C.3     
   3 C3            -1.4333    -0.5336     0.0129 C.3     
   4 N4            -2.1054    -0.1483    -1.2305 N.am    
   5 C5            -3.3867    -0.5081    -1.4434 C.2     
   6 O6            -3.9833    -1.1509    -0.6057 O.2     
   7 C7            -4.0781    -0.1117    -2.7225 C.3     
   8 N8            -5.4525    -0.6188    -2.7121 N.am    
   9 C9            -5.8621    -1.4750    -3.6689 C.2     
  10 O10           -5.0929    -1.8257    -4.5386 O.2     
  11 C11           -7.2759    -1.9967    -3.6582 C.3     
  12 N12           -7.4707    -2.9029    -4.7927 N.am    
  13 C13           -8.6668    -3.4929    -4.9862 C.2     
  14 O14           -9.5820    -3.2737    -4.2211 O.2     
  15 C15           -8.8672    -4.4251    -6.1533 C.3     
  16 N16          -10.2416    -4.9322    -6.1429 N.am    
  17 C17          -10.8146    -5.3494    -7.2892 C.2     
  18 O18          -10.1925    -5.3051    -8.3293 O.2     
  19 C19          -12.2284    -5.8711    -7.2785 C.3     
  20 C20          -12.2331    -7.3219    -6.7928 C.3     
  21 C21          -13.6551    -7.8043    -6.6648 C.ar    
  22 C22          -14.2795    -8.4054    -7.7421 C.ar    
  23 C23          -15.5830    -8.8484    -7.6273 C.ar    
  24 C24          -16.2654    -8.6897    -6.4299 C.ar    
  25 C25          -15.6366    -8.0862    -5.3505 C.ar    
  26 C26          -14.3312    -7.6500    -5.4687 C.ar    
  27 O27          -17.5479    -9.1243    -6.3146 O.3     
  28 N28          -12.7841    -5.8076    -8.6368 N.3     
  29 C29           -7.8902    -5.5974    -6.0431 C.3     
  30 C30           -6.3816    -0.1952    -1.6616 C.3     
  31 C31           -4.0981     1.4136    -2.8398 C.3     
  32 C32           -4.6784     1.8072    -4.1738 C.ar    
  33 C33           -6.0396     2.0105    -4.3025 C.ar    
  34 C34           -6.5719     2.3715    -5.5261 C.ar    
  35 C35           -5.7429     2.5297    -6.6209 C.ar    
  36 C36           -4.3815     2.3273    -6.4920 C.ar    
  37 C37           -3.8487     1.9705    -5.2673 C.ar    
  38 H38            0.8606     1.8301     0.0037 H       
  39 H39            0.5123    -0.3556    -0.8948 H       
  40 H40            0.5293    -0.3651     0.8851 H       
  41 H41           -1.4190    -1.6203     0.0965 H       
  42 H42           -1.9701    -0.1109     0.8621 H       
  43 H43           -1.6283     0.3658    -1.9006 H       
  44 H44           -3.5412    -0.5345    -3.5717 H       
  45 H45           -7.4576    -2.5349    -2.7280 H       
  46 H46           -7.9719    -1.1615    -3.7367 H       
  47 H47           -6.7387    -3.0782    -5.4046 H       
  48 H48           -8.6855    -3.8869    -7.0835 H       
  49 H49          -10.7392    -4.9677    -5.3110 H       
  50 H50          -12.8354    -5.2618    -6.6088 H       
  51 H51          -11.7006    -7.9468    -7.5098 H       
  52 H52          -11.7404    -7.3818    -5.8224 H       
  53 H53          -13.7479    -8.5285    -8.6741 H       
  54 H54          -16.0704    -9.3176    -8.4691 H       
  55 H55          -16.1658    -7.9615    -4.4174 H       
  56 H56          -13.8412    -7.1801    -4.6287 H       
  57 H57          -17.6275   -10.0387    -6.0105 H       
  58 H58          -12.8516    -4.8527    -8.9556 H       
  59 H59          -12.2385    -6.3648    -9.2771 H       
  60 H60           -8.0351    -6.2717    -6.8872 H       
  61 H61           -6.8676    -5.2201    -6.0509 H       
  62 H62           -8.0719    -6.1356    -5.1129 H       
  63 H63           -6.9090     0.7027    -1.9834 H       
  64 H64           -7.1018    -0.9909    -1.4710 H       
  65 H65           -5.8253     0.0176    -0.7487 H       
  66 H66           -4.7095     1.8315    -2.0401 H       
  67 H67           -3.0813     1.7977    -2.7583 H       
  68 H68           -6.6873     1.8870    -3.4471 H       
  69 H69           -7.6355     2.5297    -5.6268 H       
  70 H70           -6.1588     2.8111    -7.5770 H       
  71 H71           -3.7339     2.4505    -7.3474 H       
  72 H72           -2.7851     1.8124    -5.1666 H       
@<TRIPOS>BOND
   1    1    2 1
   2    1   38 1
   3    2    3 1
   4    2   39 1
   5    2   40 1
   6    3    4 1
   7    3   41 1
   8    3   42 1
   9    4    5 am
  10    4   43 1
  11    5    6 2
  12    5    7 1
  13    7    8 1
  14    7   31 1
  15    7   44 1
  16    8    9 am
  17    8   30 1
  18    9   10 2
  19    9   11 1
  20   11   12 1
  21   11   45 1
  22   11   46 1
  23   12   13 am
  24   12   47 1
  25   13   14 2
  26   13   15 1
  27   15   16 1
  28   15   29 1
  29   15   48 1
  30   16   17 am
  31   16   49 1
  32   17   18 2
  33   17   19 1
  34   19   20 1
  35   19   28 1
  36   19   50 1
  37   20   21 1
  38   20   51 1
  39   20   52 1
  40   21   22 ar
  41   21   26 ar
  42   22   23 ar
  43   22   53 1
  44   23   24 ar
  45   23   54 1
  46   24   25 ar
  47   24   27 1
  48   25   26 ar
  49   25   55 1
  50   26   56 1
  51   27   57 1
  52   28   58 1
  53   28   59 1
  54   29   60 1
  55   29   61 1
  56   29   62 1
  57   30   63 1
  58   30   64 1
  59   30   65 1
  60   31   32 1
  61   31   66 1
  62   31   67 1
  63   32   33 ar
  64   32   37 ar
  65   33   34 ar
  66   33   68 1
  67   34   35 ar
  68   34   69 1
  69   35   36 ar
  70   35   70 1
  71   36   37 ar
  72   36   71 1
  73   37   72 1

#	End of record

