#	Name: ASD02560081
#	Creating user name:	WinNT
#	Creation time:	15. 06. 2019 20:24

#	Modifying user name:	WinNT
#	Modification time:	15. 06. 2019 20:24

#	Program:	/corina/corina34_cracker 3.40 0067  02.08.2006

@<TRIPOS>MOLECULE
ASD02560081
  46   48    0    0    0
SMALL
NO_CHARGES


@<TRIPOS>ATOM
   1 C1             2.0169    -0.7016     0.4615 C.3     
   2 C2             0.9216    -0.3641    -0.5498 C.3     
   3 C3             0.8986     1.1156    -0.8286 C.ar    
   4 C4             1.4575     2.0272     0.0526 C.ar    
   5 N5             2.0716     1.5971     1.2377 N.am    
   6 C6             1.8620     0.2129     1.6838 C.3     
   7 C7             0.3031     1.5684    -1.9944 C.ar    
   8 C8             0.2638     2.9207    -2.2775 C.ar    
   9 C9             0.8198     3.8314    -1.3960 C.ar    
  10 C10            1.4160     3.3872    -0.2331 C.ar    
  11 C11            2.8415     2.4391     1.9552 C.2     
  12 S12            3.4711     1.9379     3.5227 S.3     
  13 O13            3.1018     3.5448     1.5206 O.2     
  14 C14            4.3915     3.4271     3.9825 C.3     
  15 C15            5.0350     3.2239     5.3300 C.2     
  16 N16            5.7760     4.2073     5.8780 N.am    
  17 O17            4.8860     2.1755     5.9213 O.2     
  18 C18            6.3052     4.0508     7.1644 C.ar    
  19 C19            6.5508     2.7799     7.6657 C.ar    
  20 C20            7.0735     2.6287     8.9357 C.ar    
  21 C21            7.3519     3.7413     9.7077 C.ar    
  22 C22            7.1087     5.0093     9.2120 C.ar    
  23 C23            6.5912     5.1679     7.9405 C.ar    
  24 Cl24           6.2865     6.7597     7.3184 Cl      
  25 S25            8.0174     3.5433    11.3271 S.o2    
  26 O26            7.6835     4.7231    12.0452 O.2     
  27 O27            7.6463     2.2406    11.7569 O.2     
  28 N28            9.6670     3.5355    11.1816 N.am    
  29 Cl29          -0.4840     3.4779    -3.7418 Cl      
  30 H30            1.9210    -1.7427     0.7699 H       
  31 H31            2.9948    -0.5419     0.0075 H       
  32 H32            1.1113    -0.9023    -1.4785 H       
  33 H33           -0.0448    -0.6696    -0.1487 H       
  34 H34            0.8602     0.1067     2.0999 H       
  35 H35            2.6051    -0.0488     2.4371 H       
  36 H36           -0.1320     0.8616    -2.6853 H       
  37 H37            0.7876     4.8879    -1.6179 H       
  38 H38            1.8502     4.0967     0.4558 H       
  39 H39            5.1626     3.6222     3.2373 H       
  40 H40            3.7091     4.2758     4.0300 H       
  41 H41            5.9427     5.0234     5.3809 H       
  42 H42            6.3331     1.9101     7.0638 H       
  43 H43            7.2647     1.6400     9.3259 H       
  44 H44            7.3272     5.8764     9.8176 H       
  45 H45           10.0772     3.6308    10.3078 H       
  46 H46           10.2230     3.4356    11.9701 H       
@<TRIPOS>BOND
   1    1    2 1
   2    1    6 1
   3    1   30 1
   4    1   31 1
   5    2    3 1
   6    2   32 1
   7    2   33 1
   8    3    4 ar
   9    3    7 ar
  10    4    5 1
  11    4   10 ar
  12    5    6 1
  13    5   11 am
  14    6   34 1
  15    6   35 1
  16    7    8 ar
  17    7   36 1
  18    8    9 ar
  19    8   29 1
  20    9   10 ar
  21    9   37 1
  22   10   38 1
  23   11   12 1
  24   11   13 2
  25   12   14 1
  26   14   15 1
  27   14   39 1
  28   14   40 1
  29   15   16 am
  30   15   17 2
  31   16   18 1
  32   16   41 1
  33   18   19 ar
  34   18   23 ar
  35   19   20 ar
  36   19   42 1
  37   20   21 ar
  38   20   43 1
  39   21   22 ar
  40   21   25 1
  41   22   23 ar
  42   22   44 1
  43   23   24 1
  44   25   26 2
  45   25   27 2
  46   25   28 am
  47   28   45 1
  48   28   46 1

#	End of record

