#	Name: ASD02500067
#	Creating user name:	WinNT
#	Creation time:	15. 06. 2019 20:22

#	Modifying user name:	WinNT
#	Modification time:	15. 06. 2019 20:22

#	Program:	/corina/corina34_cracker 3.40 0067  02.08.2006

@<TRIPOS>MOLECULE
ASD02500067
  70   74    0    0    0
SMALL
NO_CHARGES


@<TRIPOS>ATOM
   1 N1             1.9505     3.9134    -0.6711 N.ar    
   2 C2             2.8973     3.6017     0.1802 C.ar    
   3 C3             4.0340     2.8981    -0.2126 C.ar    
   4 C4             4.1821     2.5145    -1.5150 C.ar    
   5 C5             3.1631     2.8506    -2.4263 C.ar    
   6 C6             3.2456     2.4907    -3.7808 C.ar    
   7 C7             2.2391     2.8348    -4.6310 C.ar    
   8 C8             1.1277     3.5401    -4.1747 C.ar    
   9 C9             1.0152     3.9050    -2.8683 C.ar    
  10 C10            2.0335     3.5681    -1.9599 C.ar    
  11 S11           -0.4011     4.7972    -2.3181 S.o2    
  12 O12            0.0862     5.8949    -1.5587 O.2     
  13 O13           -1.2446     4.9496    -3.4515 O.2     
  14 N14           -1.2148     3.8196    -1.2577 N.am    
  15 C15           -1.7641     2.6207    -1.6987 C.ar    
  16 C16           -1.5710     1.4555    -0.9616 C.ar    
  17 C17           -2.1132     0.2675    -1.3954 C.ar    
  18 C18           -2.8586     0.2314    -2.5775 C.ar    
  19 C19           -3.0507     1.4032    -3.3153 C.ar    
  20 C20           -2.5107     2.5892    -2.8733 C.ar    
  21 C21           -3.4409    -1.0406    -3.0456 C.2     
  22 O22           -4.5602    -1.0586    -3.5205 O.2     
  23 N23           -2.7323    -2.1828    -2.9469 N.am    
  24 C24           -3.2551    -3.4450    -3.4918 C.3     
  25 C25           -2.1796    -4.0721    -4.3851 C.3     
  26 N26           -0.9276    -4.1943    -3.6265 N.3     
  27 C27           -0.4126    -2.8763    -3.2321 C.3     
  28 C28           -1.4131    -2.1990    -2.2969 C.3     
  29 C29            0.0289    -4.9092    -4.3510 C.ar    
  30 C30           -0.1679    -6.2573    -4.6229 C.ar    
  31 C31            0.7795    -6.9609    -5.3399 C.ar    
  32 C32            1.9237    -6.3252    -5.7867 C.ar    
  33 C33            2.1227    -4.9836    -5.5179 C.ar    
  34 C34            1.1763    -4.2725    -4.8062 C.ar    
  35 C35           -1.4138    -6.9511    -4.1356 C.3     
  36 C36            3.3709    -4.2951    -6.0068 C.3     
  37 C37            4.5999    -4.9795    -5.4051 C.3     
  38 C38            3.4358    -4.3804    -7.5331 C.3     
  39 H39            2.7938     3.8985     1.2134 H       
  40 H40            4.7974     2.6565     0.5122 H       
  41 H41            5.0568     1.9689    -1.8368 H       
  42 H42            4.1026     1.9445    -4.1464 H       
  43 H43            2.3035     2.5576    -5.6728 H       
  44 H44            0.3429     3.8019    -4.8689 H       
  45 H45           -1.3083     4.0833    -0.3289 H       
  46 H46           -0.9947     1.4840    -0.0487 H       
  47 H47           -1.9628    -0.6362    -0.8234 H       
  48 H48           -3.6258     1.3784    -4.2291 H       
  49 H49           -2.6627     3.4957    -3.4403 H       
  50 H50           -3.4946    -4.1253    -2.6745 H       
  51 H51           -4.1504    -3.2465    -4.0809 H       
  52 H52           -2.5065    -5.0601    -4.7091 H       
  53 H53           -2.0162    -3.4386    -5.2570 H       
  54 H54            0.5419    -2.9971    -2.7199 H       
  55 H55           -0.2738    -2.2595    -4.1200 H       
  56 H56           -1.0911    -1.1771    -2.0965 H       
  57 H57           -1.4720    -2.7572    -1.3626 H       
  58 H58            0.6271    -8.0089    -5.5516 H       
  59 H59            2.6634    -6.8780    -6.3467 H       
  60 H60            1.3303    -3.2235    -4.6003 H       
  61 H61           -2.1636    -6.9495    -4.9266 H       
  62 H62           -1.1744    -7.9792    -3.8639 H       
  63 H63           -1.8043    -6.4264    -3.2636 H       
  64 H64            3.3519    -3.2488    -5.7018 H       
  65 H65            4.6189    -6.0258    -5.7101 H       
  66 H66            5.5027    -4.4816    -5.7587 H       
  67 H67            4.5536    -4.9188    -4.3178 H       
  68 H68            3.4548    -5.4266    -7.8380 H       
  69 H69            2.5602    -3.8928    -7.9617 H       
  70 H70            4.3386    -3.8824    -7.8867 H       
@<TRIPOS>BOND
   1    1    2 ar
   2    1   10 ar
   3    2    3 ar
   4    2   39 1
   5    3    4 ar
   6    3   40 1
   7    4    5 ar
   8    4   41 1
   9    5    6 ar
  10    5   10 ar
  11    6    7 ar
  12    6   42 1
  13    7    8 ar
  14    7   43 1
  15    8    9 ar
  16    8   44 1
  17    9   10 ar
  18    9   11 1
  19   11   12 2
  20   11   13 2
  21   11   14 am
  22   14   15 1
  23   14   45 1
  24   15   16 ar
  25   15   20 ar
  26   16   17 ar
  27   16   46 1
  28   17   18 ar
  29   17   47 1
  30   18   19 ar
  31   18   21 1
  32   19   20 ar
  33   19   48 1
  34   20   49 1
  35   21   22 2
  36   21   23 am
  37   23   24 1
  38   23   28 1
  39   24   25 1
  40   24   50 1
  41   24   51 1
  42   25   26 1
  43   25   52 1
  44   25   53 1
  45   26   27 1
  46   26   29 1
  47   27   28 1
  48   27   54 1
  49   27   55 1
  50   28   56 1
  51   28   57 1
  52   29   30 ar
  53   29   34 ar
  54   30   31 ar
  55   30   35 1
  56   31   32 ar
  57   31   58 1
  58   32   33 ar
  59   32   59 1
  60   33   34 ar
  61   33   36 1
  62   34   60 1
  63   35   61 1
  64   35   62 1
  65   35   63 1
  66   36   37 1
  67   36   38 1
  68   36   64 1
  69   37   65 1
  70   37   66 1
  71   37   67 1
  72   38   68 1
  73   38   69 1
  74   38   70 1

#	End of record

