#	Name: ASD01814012
#	Creating user name:	WinNT
#	Creation time:	15. 06. 2019 19:31

#	Modifying user name:	WinNT
#	Modification time:	15. 06. 2019 19:31

#	Program:	/corina/corina34_cracker 3.40 0067  02.08.2006

@<TRIPOS>MOLECULE
ASD01814012
  54   58    0    0    0
SMALL
NO_CHARGES


@<TRIPOS>ATOM
   1 N1            -0.6447     1.9674    -2.1536 N.2     
   2 C2            -0.8063     0.8407    -2.8066 C.2     
   3 C3             0.2100     0.3569    -3.6447 C.2     
   4 C4             1.3602     1.0635    -3.7737 C.2     
   5 N5             1.5023     2.2330    -3.0826 N.pl3   
   6 C6             0.4872     2.6737    -2.2733 C.2     
   7 N7             2.5413     3.1662    -3.0055 N.2     
   8 C8             2.1839     4.1359    -2.1878 C.2     
   9 C9             0.9118     3.8709    -1.7093 C.2     
  10 C10            2.6660     5.4336    -1.5872 C.3     
  11 N11            1.6056     5.9413    -0.7113 N.am    
  12 C12            0.5010     4.9789    -0.7739 C.3     
  13 C13            1.6396     7.0769     0.0138 C.2     
  14 O14            0.6534     7.4358     0.6282 O.2     
  15 C15            2.8723     7.8840     0.0621 C.ar    
  16 C16            2.8049     9.2807    -0.0462 C.ar    
  17 C17            4.1132     7.2617     0.2218 C.ar    
  18 C18            5.2617     8.0203     0.2667 C.ar    
  19 C19            5.1925     9.4021     0.1540 C.ar    
  20 C20            3.9690    10.0304     0.0008 C.ar    
  21 O21            1.6048     9.8950    -0.1968 O.3     
  22 C22            1.6030    11.3240    -0.1967 C.3     
  23 C23            1.4668    13.3646     1.2356 C.3     
  24 C24            1.5300    11.8355     1.2447 C.3     
  25 C25            0.3859    11.8342    -0.9733 C.3     
  26 C26            0.3559    13.3633    -0.9180 C.3     
  27 N27            0.2854    13.8025     0.4814 N.3     
  28 C28            2.4667     0.5650    -4.6670 C.3     
  29 Cl29          -0.0032    -1.1338    -4.5084 Cl      
  30 C30           -2.0883     0.0631    -2.6556 C.3     
  31 F31            6.3247    10.1377     0.1997 F       
  32 F32            2.6665    11.4192     1.9462 F       
  33 H33            3.5719     5.2580    -1.0070 H       
  34 H34            2.8678     6.1547    -2.3793 H       
  35 H35           -0.3956     5.4691    -1.1530 H       
  36 H36            0.3091     4.5721     0.2190 H       
  37 H37            4.1716     6.1869     0.3102 H       
  38 H38            6.2202     7.5382     0.3905 H       
  39 H39            3.9216    11.1061    -0.0826 H       
  40 H40            2.5153    11.6895    -0.6681 H       
  41 H41            1.4004    13.7314     2.2599 H       
  42 H42            2.3660    13.7624     0.7652 H       
  43 H43            0.6375    11.4373     1.7274 H       
  44 H44            0.4540    11.5088    -2.0113 H       
  45 H45           -0.5246    11.4360    -0.5255 H       
  46 H46            1.2603    13.7611    -1.3784 H       
  47 H47           -0.5174    13.7291    -1.4580 H       
  48 H48           -0.5638    13.4787     0.9197 H       
  49 H49            2.1660    -0.3763    -5.1271 H       
  50 H50            2.6659     1.3023    -5.4448 H       
  51 H51            3.3687     0.4084    -4.0754 H       
  52 H52           -2.7534     0.5885    -1.9704 H       
  53 H53           -2.5712    -0.0337    -3.6280 H       
  54 H54           -1.8675    -0.9280    -2.2593 H       
@<TRIPOS>BOND
   1    1    2 2
   2    1    6 1
   3    2    3 1
   4    2   30 1
   5    3    4 2
   6    3   29 1
   7    4    5 1
   8    4   28 1
   9    5    7 1
  10    5    6 1
  11    6    9 2
  12    7    8 2
  13    8   10 1
  14    8    9 1
  15    9   12 1
  16   10   11 1
  17   10   33 1
  18   10   34 1
  19   11   12 1
  20   11   13 am
  21   12   35 1
  22   12   36 1
  23   13   14 2
  24   13   15 1
  25   15   17 ar
  26   15   16 ar
  27   16   20 ar
  28   16   21 1
  29   17   18 ar
  30   17   37 1
  31   18   19 ar
  32   18   38 1
  33   19   20 ar
  34   19   31 1
  35   20   39 1
  36   21   22 1
  37   22   25 1
  38   22   24 1
  39   22   40 1
  40   23   24 1
  41   23   27 1
  42   23   41 1
  43   23   42 1
  44   24   32 1
  45   24   43 1
  46   25   26 1
  47   25   44 1
  48   25   45 1
  49   26   27 1
  50   26   46 1
  51   26   47 1
  52   27   48 1
  53   28   49 1
  54   28   50 1
  55   28   51 1
  56   30   52 1
  57   30   53 1
  58   30   54 1

#	End of record

