#	Name: ASD01811211
#	Creating user name:	WinNT
#	Creation time:	15. 06. 2019 19:26

#	Modifying user name:	WinNT
#	Modification time:	15. 06. 2019 19:26

#	Program:	/corina/corina34_cracker 3.40 0067  02.08.2006

@<TRIPOS>MOLECULE
ASD01811211
  31   32    0    0    0
SMALL
NO_CHARGES


@<TRIPOS>ATOM
   1 C1            -0.0098     1.4717     0.0871 C.2     
   2 C2             0.0060    -0.0047     0.0394 C.ar    
   3 C3             1.2134    -0.6884    -0.1185 C.ar    
   4 C4             1.2210    -2.0670    -0.1618 C.ar    
   5 C5             0.0357    -2.7725    -0.0497 C.ar    
   6 C6            -1.1640    -2.1014     0.1065 C.ar    
   7 C7            -1.1853    -0.7229     0.1576 C.ar    
   8 O8             1.0355     2.0904     0.0944 O.2     
   9 O9            -1.1836     2.1321     0.1170 O.3     
  10 C10            2.5050     0.0782    -0.2417 C.3     
  11 C11            0.0519    -4.2786    -0.0984 C.3     
  12 C12           -0.5044    -4.9420     1.1726 C.3     
  13 C13           -1.1816    -5.9663     0.2467 C.3     
  14 C14           -1.1486    -4.8837    -0.8450 C.3     
  15 F15           -0.3810    -7.0769    -0.0410 F       
  16 F16           -2.4747    -6.3168     0.6495 F       
  17 C17           -1.1231     3.5821     0.1634 C.3     
  18 H18            2.1540    -2.5970    -0.2838 H       
  19 H19           -2.0854    -2.6581     0.1927 H       
  20 H20           -2.1220    -0.2004     0.2844 H       
  21 H21            2.8704     0.3366     0.7522 H       
  22 H22            3.2455    -0.5373    -0.7524 H       
  23 H23            2.3332     0.9898    -0.8140 H       
  24 H24            1.0136    -4.6815    -0.4160 H       
  25 H25            0.2652    -5.3737     1.8124 H       
  26 H26           -1.2087    -4.3154     1.7197 H       
  27 H27           -2.0290    -4.2411    -0.8494 H       
  28 H28           -0.8990    -5.2683    -1.8339 H       
  29 H29           -0.5881     3.8950     1.0600 H       
  30 H30           -0.6012     3.9524    -0.7190 H       
  31 H31           -2.1348     3.9874     0.1839 H       
@<TRIPOS>BOND
   1    1    2 1
   2    1    8 2
   3    1    9 1
   4    2    3 ar
   5    2    7 ar
   6    3    4 ar
   7    3   10 1
   8    4    5 ar
   9    4   18 1
  10    5    6 ar
  11    5   11 1
  12    6    7 ar
  13    6   19 1
  14    7   20 1
  15    9   17 1
  16   10   21 1
  17   10   22 1
  18   10   23 1
  19   11   12 1
  20   11   14 1
  21   11   24 1
  22   12   13 1
  23   12   25 1
  24   12   26 1
  25   13   14 1
  26   13   15 1
  27   13   16 1
  28   14   27 1
  29   14   28 1
  30   17   29 1
  31   17   30 1
  32   17   31 1

#	End of record

