#	Name: ASD06800001
#	Creating user name:	WinNT
#	Creation time:	15. 06. 2019 21:08

#	Modifying user name:	WinNT
#	Modification time:	15. 06. 2019 21:08

#	Program:	/corina/corina34_cracker 3.40 0067  02.08.2006

@<TRIPOS>MOLECULE
ASD06800001
  59   62    0    0    0
SMALL
NO_CHARGES


@<TRIPOS>ATOM
   1 C1            -0.0221     1.3160     0.1137 C.ar    
   2 N2            -0.0151    -0.0048     0.2177 N.ar    
   3 C3             1.1248    -0.6702     0.3048 C.ar    
   4 C4             2.3201     0.0310     0.2861 C.ar    
   5 C5             2.2765     1.4124     0.1762 C.ar    
   6 N6             1.1028     2.0161     0.0929 N.ar    
   7 C7            -4.7617     1.0090     0.4068 C.ar    
   8 C8            -4.7799    -0.1944    -0.2942 C.ar    
   9 C9            -3.6192    -0.6683    -0.8877 C.ar    
  10 C10           -2.4455     0.0519    -0.7840 C.ar    
  11 C11           -2.4243     1.2525    -0.0854 C.ar    
  12 C12           -3.5851     1.7329     0.5056 C.ar    
  13 C13            0.0646    -3.0928     3.9281 C.ar    
  14 C14           -1.2860    -3.3370     3.7532 C.ar    
  15 C15           -1.8557    -3.2042     2.4994 C.ar    
  16 C16           -1.0757    -2.8271     1.4226 C.ar    
  17 C17            0.2737    -2.5832     1.5980 C.ar    
  18 C18            0.8437    -2.7162     2.8504 C.ar    
  19 C19           -6.7978    -1.2705     0.6158 C.2     
  20 N20           -7.8023    -1.9474     0.1288 N.2     
  21 C21           -7.6578    -2.0607    -1.1998 C.2     
  22 C22           -6.5204    -1.4303    -1.5515 C.2     
  23 N23           -5.9733    -0.9281    -0.3998 N.pl3   
  24 N24           -1.2338     1.9803     0.0186 N.pl3   
  25 C25            3.5510     2.2162     0.1524 C.3     
  26 C26            3.2129     3.7083     0.1509 C.3     
  27 O27            4.3315     1.9058     1.3085 O.3     
  28 C28            4.3473     1.8724    -1.1079 C.3     
  29 C29            1.1238    -2.1725     0.4233 C.3     
  30 Cl30          -2.2651    -3.8106     5.1062 Cl      
  31 O31           -5.8985     1.4750     0.9886 O.3     
  32 C32           -8.6025    -2.7698    -2.1357 C.3     
  33 C33           -5.8059     2.7158     1.6915 C.3     
  34 H34            3.2650    -0.4873     0.3560 H       
  35 H35           -3.6334    -1.6014    -1.4312 H       
  36 H36           -1.5427    -0.3189    -1.2465 H       
  37 H37           -3.5688     2.6663     1.0487 H       
  38 H38            0.5090    -3.1920     4.9074 H       
  39 H39           -2.9098    -3.3951     2.3622 H       
  40 H40           -1.5202    -2.7237     0.4438 H       
  41 H41            1.8979    -2.5255     2.9868 H       
  42 H42           -6.6519    -1.0214     1.6565 H       
  43 H43           -6.1172    -1.3383    -2.5492 H       
  44 H44           -1.2570     2.9500     0.0241 H       
  45 H45            2.6456     3.9533     1.0488 H       
  46 H46            4.1347     4.2897     0.1337 H       
  47 H47            2.6175     3.9451    -0.7309 H       
  48 H48            5.1682     2.3880     1.3592 H       
  49 H49            3.7519     2.1091    -1.9898 H       
  50 H50            5.2692     2.4537    -1.1252 H       
  51 H51            4.5882     0.8093    -1.1069 H       
  52 H52            0.7176    -2.6087    -0.4893 H       
  53 H53            2.1441    -2.5260     0.5720 H       
  54 H54           -9.3552    -2.0672    -2.4932 H       
  55 H55           -8.0442    -3.1668    -2.9835 H       
  56 H56           -9.0913    -3.5882    -1.6072 H       
  57 H57           -5.0804     2.6224     2.4996 H       
  58 H58           -5.4859     3.4994     1.0047 H       
  59 H59           -6.7808     2.9721     2.1062 H       
@<TRIPOS>BOND
   1    1    2 ar
   2    1    6 ar
   3    1   24 1
   4    2    3 ar
   5    3    4 ar
   6    3   29 1
   7    4    5 ar
   8    4   34 1
   9    5    6 ar
  10    5   25 1
  11    7    8 ar
  12    7   31 1
  13    7   12 ar
  14    8    9 ar
  15    8   23 1
  16    9   10 ar
  17    9   35 1
  18   10   11 ar
  19   10   36 1
  20   11   12 ar
  21   11   24 1
  22   12   37 1
  23   13   14 ar
  24   13   18 ar
  25   13   38 1
  26   14   15 ar
  27   14   30 1
  28   15   16 ar
  29   15   39 1
  30   16   17 ar
  31   16   40 1
  32   17   18 ar
  33   17   29 1
  34   18   41 1
  35   19   20 2
  36   19   23 1
  37   19   42 1
  38   20   21 1
  39   21   22 2
  40   21   32 1
  41   22   23 1
  42   22   43 1
  43   24   44 1
  44   25   26 1
  45   25   27 1
  46   25   28 1
  47   26   45 1
  48   26   46 1
  49   26   47 1
  50   27   48 1
  51   28   49 1
  52   28   50 1
  53   28   51 1
  54   29   52 1
  55   29   53 1
  56   31   33 1
  57   32   54 1
  58   32   55 1
  59   32   56 1
  60   33   57 1
  61   33   58 1
  62   33   59 1

#	End of record

