#	Name: ASD01813782
#	Creating user name:	WinNT
#	Creation time:	15. 06. 2019 19:31

#	Modifying user name:	WinNT
#	Modification time:	15. 06. 2019 19:31

#	Program:	/corina/corina34_cracker 3.40 0067  02.08.2006

@<TRIPOS>MOLECULE
ASD01813782
  51   54    0    0    0
SMALL
NO_CHARGES


@<TRIPOS>ATOM
   1 C1            -0.0169     1.3972     0.0097 C.2     
   2 C2             0.0021    -0.0041     0.0020 C.2     
   3 C3             1.1986    -0.6593    -0.0129 C.2     
   4 C4             2.3918     0.0821    -0.0204 C.2     
   5 N5             2.3438     1.4497    -0.0122 N.am    
   6 C6             1.1421     2.0936     0.0024 C.2     
   7 C7             3.6227    -0.5889    -0.0356 C.2     
   8 C8             4.7877     0.1218    -0.0430 C.2     
   9 C9             4.7345     1.5280    -0.0351 C.2     
  10 C10            3.4812     2.1736    -0.0189 C.2     
  11 O11            3.4258     3.3917    -0.0123 O.2     
  12 C12            5.9703     2.3140    -0.0422 C.2     
  13 O13            7.0487     1.7516    -0.0551 O.2     
  14 O14            5.9124     3.6618    -0.0346 O.3     
  15 C15            3.6593    -2.0954    -0.0434 C.3     
  16 N16            3.7785    -2.5752    -1.4268 N.3     
  17 C17            4.0546    -4.0175    -1.4618 C.3     
  18 C18            3.9919    -4.5112    -2.9111 C.3     
  19 N19            4.8958    -3.6850    -3.7257 N.am    
  20 C20            4.7701    -2.2222    -3.6379 C.3     
  21 C21            4.8022    -1.8187    -2.1600 C.3     
  22 S22            6.0255    -4.3832    -4.7149 S.o2    
  23 C23            5.2653    -4.6240    -6.2862 C.ar    
  24 O24            7.0453    -3.4125    -4.9071 O.2     
  25 O25            6.2752    -5.6787    -4.1872 O.2     
  26 C26            5.3360    -3.6330    -7.2473 C.ar    
  27 C27            4.7396    -3.8220    -8.4800 C.ar    
  28 C28            4.0729    -5.0020    -8.7517 C.ar    
  29 C29            4.0030    -5.9934    -7.7908 C.ar    
  30 C30            4.6031    -5.8062    -6.5597 C.ar    
  31 H31           -0.9605     1.9226     0.0170 H       
  32 H32           -0.9233    -0.5609     0.0082 H       
  33 H33            1.2282    -1.7389    -0.0187 H       
  34 H34            1.1156     3.1733     0.0091 H       
  35 H35            5.7392    -0.3889    -0.0544 H       
  36 H36            6.7544     4.1373    -0.0398 H       
  37 H37            4.5154    -2.4410     0.5360 H       
  38 H38            2.7413    -2.4834     0.3979 H       
  39 H39            5.0480    -4.2076    -1.0555 H       
  40 H40            3.3102    -4.5450    -0.8653 H       
  41 H41            4.3075    -5.5535    -2.9569 H       
  42 H42            2.9727    -4.4176    -3.2860 H       
  43 H43            5.6003    -1.7511    -4.1642 H       
  44 H44            3.8257    -1.9085    -4.0827 H       
  45 H45            4.6000    -0.7514    -2.0699 H       
  46 H46            5.7852    -2.0394    -1.7439 H       
  47 H47            5.8569    -2.7111    -7.0351 H       
  48 H48            4.7942    -3.0474    -9.2307 H       
  49 H49            3.6063    -5.1493    -9.7145 H       
  50 H50            3.4818    -6.9152    -8.0029 H       
  51 H51            4.5485    -6.5807    -5.8090 H       
@<TRIPOS>BOND
   1    1    2 1
   2    1    6 2
   3    1   31 1
   4    2    3 2
   5    2   32 1
   6    3    4 1
   7    3   33 1
   8    4    5 1
   9    4    7 2
  10    5    6 1
  11    5   10 am
  12    6   34 1
  13    7    8 1
  14    7   15 1
  15    8    9 2
  16    8   35 1
  17    9   10 1
  18    9   12 1
  19   10   11 2
  20   12   13 2
  21   12   14 1
  22   14   36 1
  23   15   16 1
  24   15   37 1
  25   15   38 1
  26   16   17 1
  27   16   21 1
  28   17   18 1
  29   17   39 1
  30   17   40 1
  31   18   19 1
  32   18   41 1
  33   18   42 1
  34   19   20 1
  35   19   22 am
  36   20   21 1
  37   20   43 1
  38   20   44 1
  39   21   45 1
  40   21   46 1
  41   22   23 1
  42   22   24 2
  43   22   25 2
  44   23   26 ar
  45   23   30 ar
  46   26   27 ar
  47   26   47 1
  48   27   28 ar
  49   27   48 1
  50   28   29 ar
  51   28   49 1
  52   29   30 ar
  53   29   50 1
  54   30   51 1

#	End of record

