#	Name: ASD01141114
#	Creating user name:	WinNT
#	Creation time:	15. 06. 2019 19:01

#	Modifying user name:	WinNT
#	Modification time:	15. 06. 2019 19:01

#	Program:	/corina/corina34_cracker 3.40 0067  02.08.2006

@<TRIPOS>MOLECULE
ASD01141114
  68   73    0    0    0
SMALL
NO_CHARGES


@<TRIPOS>ATOM
   1 C1             0.1477     2.7947     0.1617 C.3     
   2 C2            -0.3187     1.3275     0.0476 C.3     
   3 C3             1.6651     2.7565     0.1216 C.3     
   4 C4             0.9744     0.4647     0.0222 C.3     
   5 C5             2.1440     2.8221    -1.3301 C.3     
   6 C6             2.0017     1.3627     0.7211 C.3     
   7 C7             2.4044     3.7881     0.9500 C.3     
   8 C8             3.4560     1.0824     0.3942 C.3     
   9 H9             1.8492     1.3649     1.8003 H       
  10 C10            3.9094     3.5457     0.7452 C.3     
  11 C11            3.8528    -0.3134     0.8770 C.3     
  12 C12            4.3029     2.1298     1.1339 C.3     
  13 H13            3.6154     1.1728    -0.6803 H       
  14 C14            5.3318    -0.5556     0.5686 C.3     
  15 H15            3.6888    -0.3865     1.9521 H       
  16 C16            5.7803     1.8914     0.8177 C.3     
  17 H17            4.1579     2.0074     2.2072 H       
  18 C18            6.1837     0.4923     1.2872 C.3     
  19 C19            6.6323     2.9369     1.5403 C.3     
  20 C20            7.6611     0.2542     0.9675 C.3     
  21 H21            6.0280     0.4113     2.3630 H       
  22 C22            8.1097     2.6993     1.2214 C.3     
  23 C23            8.5137     1.2997     1.6893 C.3     
  24 O24            8.3079     1.1911     3.0992 O.3     
  25 H25            8.8183     1.8252     3.6212 H       
  26 C26            6.0038     2.0070    -0.6915 C.3     
  27 O27           -0.6102     3.8489    -0.4182 O.3     
  28 C28           -0.6250     3.7958     1.0113 C.3     
  29 O29            4.2351     3.7643    -0.6289 O.3     
  30 C30            4.9258     5.2262    -2.3994 C.ar    
  31 C31            3.9277     5.5420    -3.3022 C.ar    
  32 C32            4.2231     5.6532    -4.6481 C.ar    
  33 C33            5.5166     5.4491    -5.0910 C.ar    
  34 C34            6.5148     5.1343    -4.1880 C.ar    
  35 C35            6.2191     5.0216    -2.8423 C.ar    
  36 C36            4.6050     5.1111    -0.9314 C.3     
  37 H37           -0.9308     1.0605     0.9090 H       
  38 H38           -0.8835     1.1841    -0.8735 H       
  39 H39            0.8307    -0.4617     0.5783 H       
  40 H40            1.2789     0.2565    -1.0035 H       
  41 H41            2.0726     3.8484    -1.6902 H       
  42 H42            3.1803     2.4886    -1.3862 H       
  43 H43            1.5204     2.1760    -1.9479 H       
  44 H44            2.1412     4.7911     0.6143 H       
  45 H45            2.1496     3.6697     2.0032 H       
  46 H46            4.4705     4.2497     1.3596 H       
  47 H47            3.2470    -1.0611     0.3651 H       
  48 H48            5.6157    -1.5508     0.9105 H       
  49 H49            5.4954    -0.4811    -0.5065 H       
  50 H50            6.3443     3.9338     1.2069 H       
  51 H51            6.4748     2.8537     2.6157 H       
  52 H52            7.9491    -0.7427     1.3012 H       
  53 H53            7.8181     0.3370    -0.1080 H       
  54 H54            8.2673     2.7824     0.1460 H       
  55 H55            8.7169     3.4439     1.7362 H       
  56 H56            9.5661     1.1302     1.4617 H       
  57 H57            5.9514     3.0547    -0.9874 H       
  58 H58            6.9853     1.6064    -0.9451 H       
  59 H59            5.2339     1.4420    -1.2171 H       
  60 H60           -1.5379     3.4519     1.4977 H       
  61 H61           -0.0542     4.5493     1.5539 H       
  62 H62            2.9172     5.7014    -2.9562 H       
  63 H63            3.4433     5.8992    -5.3535 H       
  64 H64            5.7472     5.5353    -6.1425 H       
  65 H65            7.5252     4.9741    -4.5341 H       
  66 H66            6.9988     4.7749    -2.1370 H       
  67 H67            3.7787     5.7785    -0.6866 H       
  68 H68            5.4813     5.3876    -0.3452 H       
@<TRIPOS>BOND
   1    1    2 1
   2    1    3 1
   3    1   27 1
   4    1   28 1
   5    2    4 1
   6    2   37 1
   7    2   38 1
   8    3    5 1
   9    3    6 1
  10    3    7 1
  11    4    6 1
  12    4   39 1
  13    4   40 1
  14    5   41 1
  15    5   42 1
  16    5   43 1
  17    6    8 1
  18    6    9 1
  19    7   10 1
  20    7   44 1
  21    7   45 1
  22    8   12 1
  23    8   13 1
  24    8   11 1
  25   10   12 1
  26   10   29 1
  27   10   46 1
  28   11   15 1
  29   11   14 1
  30   11   47 1
  31   12   16 1
  32   12   17 1
  33   14   18 1
  34   14   48 1
  35   14   49 1
  36   16   18 1
  37   16   26 1
  38   16   19 1
  39   18   20 1
  40   18   21 1
  41   19   22 1
  42   19   50 1
  43   19   51 1
  44   20   23 1
  45   20   52 1
  46   20   53 1
  47   22   23 1
  48   22   54 1
  49   22   55 1
  50   23   24 1
  51   23   56 1
  52   24   25 1
  53   26   57 1
  54   26   58 1
  55   26   59 1
  56   27   28 1
  57   28   60 1
  58   28   61 1
  59   29   36 1
  60   30   31 ar
  61   30   35 ar
  62   30   36 1
  63   31   32 ar
  64   31   62 1
  65   32   33 ar
  66   32   63 1
  67   33   34 ar
  68   33   64 1
  69   34   35 ar
  70   34   65 1
  71   35   66 1
  72   36   67 1
  73   36   68 1

#	End of record

