#	Name: ASD03320219
#	Creating user name:	WinNT
#	Creation time:	15. 06. 2019 20:36

#	Modifying user name:	WinNT
#	Modification time:	15. 06. 2019 20:36

#	Program:	/corina/corina34_cracker 3.40 0067  02.08.2006

@<TRIPOS>MOLECULE
ASD03320219
  37   39    0    0    0
SMALL
NO_CHARGES


@<TRIPOS>ATOM
   1 C1            -0.0073     1.3431    -0.1945 C.ar    
   2 C2             0.0219    -0.0349     0.0266 C.ar    
   3 N3            -1.0905    -0.7401     0.0430 N.ar    
   4 C4            -2.2723    -0.1856    -0.1461 C.ar    
   5 C5            -2.3919     1.1868    -0.3741 C.ar    
   6 C6            -1.2408     1.9725    -0.3939 C.ar    
   7 C7             1.2456     2.1264    -0.2117 C.2     
   8 O8             1.2098     3.3261    -0.4051 O.2     
   9 N9             2.4279     1.5108    -0.0130 N.am    
  10 C10            3.6217     2.2342    -0.1262 C.ar    
  11 C11           -3.7260     1.8009    -0.5866 C.ar    
  12 C12            3.6730     3.5590     0.2867 C.ar    
  13 C13            4.8504     4.2717     0.1747 C.ar    
  14 C14            5.9819     3.6644    -0.3502 C.ar    
  15 C15            5.9314     2.3410    -0.7629 C.ar    
  16 C16            4.7562     1.6253    -0.6462 C.ar    
  17 O17            7.1408     4.3669    -0.4606 O.3     
  18 C18            8.2665     3.6791    -1.0098 C.3     
  19 Cl19           9.6838     4.7924    -1.0628 Cl      
  20 F20            8.5724     2.5725    -0.2103 F       
  21 F21            7.9631     3.2485    -2.3058 F       
  22 Cl22          -3.6980    -1.1754    -0.1115 Cl      
  23 C23           -4.6244     1.2637    -1.5118 C.ar    
  24 N24           -5.8026     1.8421    -1.6700 N.ar    
  25 C25           -6.1333     2.9091    -0.9701 C.ar    
  26 N26           -5.3156     3.4475    -0.0872 N.ar    
  27 C27           -4.1206     2.9288     0.1373 C.ar    
  28 H28            0.9688    -0.5293     0.1860 H       
  29 H29           -1.2987     3.0369    -0.5671 H       
  30 H30            2.4521     0.5668     0.2084 H       
  31 H31            2.7921     4.0320     0.6951 H       
  32 H32            4.8903     5.3021     0.4955 H       
  33 H33            6.8127     1.8689    -1.1715 H       
  34 H34            4.7171     0.5950    -0.9676 H       
  35 H35           -4.3603     0.3900    -2.0891 H       
  36 H36           -7.1041     3.3563    -1.1250 H       
  37 H37           -3.4561     3.3754     0.8621 H       
@<TRIPOS>BOND
   1    1    2 ar
   2    1    7 1
   3    1    6 ar
   4    2    3 ar
   5    2   28 1
   6    3    4 ar
   7    4    5 ar
   8    4   22 1
   9    5    6 ar
  10    5   11 1
  11    6   29 1
  12    7    8 2
  13    7    9 am
  14    9   10 1
  15    9   30 1
  16   10   12 ar
  17   10   16 ar
  18   11   23 ar
  19   11   27 ar
  20   12   13 ar
  21   12   31 1
  22   13   14 ar
  23   13   32 1
  24   14   15 ar
  25   14   17 1
  26   15   16 ar
  27   15   33 1
  28   16   34 1
  29   17   18 1
  30   18   19 1
  31   18   20 1
  32   18   21 1
  33   23   24 ar
  34   23   35 1
  35   24   25 ar
  36   25   26 ar
  37   25   36 1
  38   26   27 ar
  39   27   37 1

#	End of record

