#	Name: ASD01840344
#	Creating user name:	WinNT
#	Creation time:	15. 06. 2019 19:37

#	Modifying user name:	WinNT
#	Modification time:	15. 06. 2019 19:37

#	Program:	/corina/corina34_cracker 3.40 0067  02.08.2006

@<TRIPOS>MOLECULE
ASD01840344
  43   47    0    0    0
SMALL
NO_CHARGES


@<TRIPOS>ATOM
   1 C1            -0.1720     1.4997     0.0285 C.3     
   2 C2            -0.1351    -0.0068     0.0183 C.2     
   3 C3            -0.2858    -0.6816    -1.1423 C.2     
   4 C4            -0.2503    -2.0928    -1.1451 C.2     
   5 N5            -0.3664    -2.9920    -2.1093 N.2     
   6 N6            -0.2640    -4.1733    -1.6106 N.2     
   7 C7            -0.0793    -4.1051    -0.3185 C.2     
   8 N8            -0.0642    -2.7842     0.0208 N.pl3   
   9 C9             0.0939    -2.1359     1.2281 C.2     
  10 S10            0.3443    -2.7964     2.8400 S.3     
  11 C11            0.4086    -1.2016     3.5640 C.2     
  12 C12            0.6029    -0.9514     4.9430 C.2     
  13 O13            0.6339     0.1942     5.3556 O.2     
  14 N14            0.7535    -1.9807     5.7999 N.am    
  15 C15            0.9546    -1.7216     7.2277 C.3     
  16 C16           -0.3938    -1.7108     7.9786 C.3     
  17 C17           -0.0978    -2.3178     9.3333 C.ar    
  18 C18           -0.8226    -2.2775    10.5122 C.ar    
  19 C19           -0.3482    -2.9154    11.6421 C.ar    
  20 C20            0.8537    -3.5962    11.5963 C.ar    
  21 C21            1.5783    -3.6375    10.4208 C.ar    
  22 C22            1.1045    -2.9988     9.2875 C.ar    
  23 C23            1.6982    -2.8959     7.8989 C.3     
  24 C24            0.2471    -0.2376     2.6186 C.2     
  25 N25            0.2554     1.1195     2.9140 N.pl3   
  26 C26            0.0715    -0.7513     1.2739 C.2     
  27 H27            0.7896     1.8844     0.3683 H       
  28 H28           -0.3742     1.8651    -0.9783 H       
  29 H29           -0.9581     1.8394     0.7029 H       
  30 H30           -0.4334    -0.1424    -2.0663 H       
  31 H31            0.0395    -4.9404     0.3558 H       
  32 H32            0.7288    -2.8930     5.4713 H       
  33 H33            1.4927    -0.7857     7.3780 H       
  34 H34           -0.7549    -0.6887     8.0928 H       
  35 H35           -1.1283    -2.3148     7.4458 H       
  36 H36           -1.7617    -1.7454    10.5488 H       
  37 H37           -0.9158    -2.8818    12.5603 H       
  38 H38            1.2263    -4.0951    12.4787 H       
  39 H39            2.5174    -4.1697    10.3859 H       
  40 H40            1.5264    -3.8186     7.3447 H       
  41 H41            2.7655    -2.6829     7.9588 H       
  42 H42            0.2629     1.4148     3.8380 H       
  43 H43            0.2537     1.7721     2.1964 H       
@<TRIPOS>BOND
   1    1    2 1
   2    1   27 1
   3    1   28 1
   4    1   29 1
   5    2   26 1
   6    2    3 2
   7    3    4 1
   8    3   30 1
   9    4    8 1
  10    4    5 2
  11    5    6 1
  12    6    7 2
  13    7    8 1
  14    7   31 1
  15    8    9 1
  16    9   26 2
  17    9   10 1
  18   10   11 1
  19   11   12 1
  20   11   24 2
  21   12   13 2
  22   12   14 am
  23   14   15 1
  24   14   32 1
  25   15   23 1
  26   15   16 1
  27   15   33 1
  28   16   17 1
  29   16   34 1
  30   16   35 1
  31   17   22 ar
  32   17   18 ar
  33   18   19 ar
  34   18   36 1
  35   19   20 ar
  36   19   37 1
  37   20   21 ar
  38   20   38 1
  39   21   22 ar
  40   21   39 1
  41   22   23 1
  42   23   40 1
  43   23   41 1
  44   24   25 1
  45   24   26 1
  46   25   42 1
  47   25   43 1

#	End of record

