#	Name: ASD01440009
#	Creating user name:	WinNT
#	Creation time:	15. 06. 2019 19:20

#	Modifying user name:	WinNT
#	Modification time:	15. 06. 2019 19:20

#	Program:	/corina/corina34_cracker 3.40 0067  02.08.2006

@<TRIPOS>MOLECULE
ASD01440009
  43   45    0    0    0
SMALL
NO_CHARGES


@<TRIPOS>ATOM
   1 O1            -1.5563    -2.2922     3.9092 O.3     
   2 C2            -0.9876    -2.3572     2.6892 C.2     
   3 O3             0.1385    -2.7973     2.5663 O.2     
   4 C4            -1.7309    -1.8949     1.5045 C.ar    
   5 C5            -2.9772    -1.2801     1.6521 C.ar    
   6 C6            -3.6671    -0.8496     0.5399 C.ar    
   7 C7            -3.1320    -1.0226    -0.7268 C.ar    
   8 C8            -1.9029    -1.6282    -0.8897 C.ar    
   9 C9            -1.1891    -2.0640     0.2197 C.ar    
  10 N10            0.0483    -2.6739     0.0585 N.pl3   
  11 C11            0.1560    -4.0652     0.1296 C.ar    
  12 C12            1.4031    -4.6719     0.0485 C.ar    
  13 C13            1.5060    -6.0473     0.1191 C.ar    
  14 C14            0.3693    -6.8204     0.2698 C.ar    
  15 C15           -0.8736    -6.2197     0.3509 C.ar    
  16 C16           -0.9831    -4.8445     0.2873 C.ar    
  17 C17            0.4854    -8.3210     0.3455 C.3     
  18 C18            0.6587    -8.7462     1.8050 C.3     
  19 C19            0.7748   -10.2468     1.8806 C.ar    
  20 C20            2.0165   -10.8485     1.7992 C.ar    
  21 C21            2.1245   -12.2250     1.8689 C.ar    
  22 C22            0.9896   -13.0009     2.0202 C.ar    
  23 C23           -0.2545   -12.3980     2.1017 C.ar    
  24 C24           -0.3602   -11.0205     2.0371 C.ar    
  25 Cl25          -1.6800   -13.3704     2.2915 Cl      
  26 Cl26           1.1245   -14.7294     2.1072 Cl      
  27 H27           -1.0295    -2.6073     4.6565 H       
  28 H28           -3.3992    -1.1429     2.6367 H       
  29 H29           -4.6302    -0.3749     0.6558 H       
  30 H30           -3.6809    -0.6815    -1.5921 H       
  31 H31           -1.4934    -1.7598    -1.8803 H       
  32 H32            0.8377    -2.1339    -0.1035 H       
  33 H33            2.2911    -4.0688    -0.0700 H       
  34 H34            2.4752    -6.5196     0.0561 H       
  35 H35           -1.7593    -6.8264     0.4687 H       
  36 H36           -1.9542    -4.3760     0.3507 H       
  37 H37           -0.4178    -8.7763    -0.0608 H       
  38 H38            1.3492    -8.6483    -0.2333 H       
  39 H39            1.5619    -8.2910     2.2112 H       
  40 H40           -0.2050    -8.4190     2.3837 H       
  41 H41            2.9029   -10.2430     1.6808 H       
  42 H42            3.0950   -12.6945     1.8050 H       
  43 H43           -1.3301   -10.5497     2.1006 H       
@<TRIPOS>BOND
   1    1    2 1
   2    1   27 1
   3    2    3 2
   4    2    4 1
   5    4    5 ar
   6    4    9 ar
   7    5    6 ar
   8    5   28 1
   9    6    7 ar
  10    6   29 1
  11    7    8 ar
  12    7   30 1
  13    8    9 ar
  14    8   31 1
  15    9   10 1
  16   10   11 1
  17   10   32 1
  18   11   12 ar
  19   11   16 ar
  20   12   13 ar
  21   12   33 1
  22   13   14 ar
  23   13   34 1
  24   14   15 ar
  25   14   17 1
  26   15   16 ar
  27   15   35 1
  28   16   36 1
  29   17   18 1
  30   17   37 1
  31   17   38 1
  32   18   19 1
  33   18   39 1
  34   18   40 1
  35   19   20 ar
  36   19   24 ar
  37   20   21 ar
  38   20   41 1
  39   21   22 ar
  40   21   42 1
  41   22   23 ar
  42   22   26 1
  43   23   24 ar
  44   23   25 1
  45   24   43 1

#	End of record

