#	Name: ASD03240511
#	Creating user name:	WinNT
#	Creation time:	15. 06. 2019 20:35

#	Modifying user name:	WinNT
#	Modification time:	15. 06. 2019 20:35

#	Program:	/corina/corina34_cracker 3.40 0067  02.08.2006

@<TRIPOS>MOLECULE
ASD03240511
  40   42    0    0    0
SMALL
NO_CHARGES


@<TRIPOS>ATOM
   1 C1            -0.4927     1.5937    -0.1294 C.ar    
   2 C2            -0.1900     0.2440    -0.1246 C.ar    
   3 C3             0.5149     2.5290    -0.2526 C.ar    
   4 C4             1.8385     2.1116    -0.3725 C.ar    
   5 C5             2.1377     0.7511    -0.3672 C.ar    
   6 C6             1.1226    -0.1758    -0.2428 C.ar    
   7 C7             2.9263     3.1132    -0.5059 C.2     
   8 C8             4.2583     2.8451    -0.6304 C.2     
   9 N9             4.9046     4.0245    -0.7253 N.pl3   
  10 N10            3.9546     5.0507    -0.6585 N.2     
  11 C11            2.7704     4.5127    -0.5330 C.2     
  12 C12           -1.2942    -0.7726     0.0103 C.3     
  13 C13           -1.4325    -1.5383    -1.2802 C.ar    
  14 C14           -2.5572    -1.3706    -2.0657 C.ar    
  15 C15           -2.6845    -2.0734    -3.2506 C.ar    
  16 C16           -1.6848    -2.9445    -3.6486 C.ar    
  17 C17           -0.5596    -3.1112    -2.8611 C.ar    
  18 C18           -0.4315    -2.4041    -1.6806 C.ar    
  19 Cl19          -1.8433    -3.8276    -5.1348 Cl      
  20 Cl20          -4.0973    -1.8635    -4.2373 Cl      
  21 C21           -0.9588    -1.7423     1.1453 C.3     
  22 C22           -0.9412    -0.9850     2.4746 C.3     
  23 N23           -0.6191    -1.9160     3.5643 N.3     
  24 H24           -1.5196     1.9161    -0.0409 H       
  25 H25            0.2774     3.5826    -0.2565 H       
  26 H26            3.1623     0.4222    -0.4598 H       
  27 H27            1.3536    -1.2308    -0.2383 H       
  28 H28            4.7126     1.8654    -0.6495 H       
  29 H29            5.8626     4.1418    -0.8227 H       
  30 H30            1.8356     5.0481    -0.4562 H       
  31 H31           -2.2318    -0.2632     0.2328 H       
  32 H32           -3.3368    -0.6912    -1.7544 H       
  33 H33            0.2204    -3.7908    -3.1709 H       
  34 H34            0.4472    -2.5342    -1.0662 H       
  35 H35           -1.7120    -2.5291     1.1854 H       
  36 H36            0.0208    -2.1857     0.9667 H       
  37 H37           -0.1880    -0.1981     2.4345 H       
  38 H38           -1.9208    -0.5415     2.6532 H       
  39 H39            0.2551    -2.3885     3.3897 H       
  40 H40           -0.6013    -1.4395     4.4536 H       
@<TRIPOS>BOND
   1    1    2 ar
   2    1    3 ar
   3    1   24 1
   4    2   12 1
   5    2    6 ar
   6    3    4 ar
   7    3   25 1
   8    4    5 ar
   9    4    7 1
  10    5    6 ar
  11    5   26 1
  12    6   27 1
  13    7    8 2
  14    7   11 1
  15    8    9 1
  16    8   28 1
  17    9   10 1
  18    9   29 1
  19   10   11 2
  20   11   30 1
  21   12   13 1
  22   12   21 1
  23   12   31 1
  24   13   14 ar
  25   13   18 ar
  26   14   15 ar
  27   14   32 1
  28   15   16 ar
  29   15   20 1
  30   16   17 ar
  31   16   19 1
  32   17   18 ar
  33   17   33 1
  34   18   34 1
  35   21   22 1
  36   21   35 1
  37   21   36 1
  38   22   23 1
  39   22   37 1
  40   22   38 1
  41   23   39 1
  42   23   40 1

#	End of record

