#	Name: ASD00170386
#	Creating user name:	WinNT
#	Creation time:	15. 06. 2019 18:32

#	Modifying user name:	WinNT
#	Modification time:	15. 06. 2019 18:32

#	Program:	/corina/corina34_cracker 3.40 0067  02.08.2006

@<TRIPOS>MOLECULE
ASD00170386
  28   30    0    0    0
SMALL
NO_CHARGES


@<TRIPOS>ATOM
   1 C1            -0.0164     1.3567     0.0095 C.2     
   2 C2             0.0021    -0.0041     0.0020 C.2     
   3 S3            -1.6499    -0.5927    -0.0112 S.3     
   4 C4            -2.2442     1.0652     0.0089 C.2     
   5 N5            -1.2396     1.8846     0.0186 N.2     
   6 N6            -3.5790     1.4364     0.0127 N.pl3   
   7 C7             1.2822     2.0966     0.0011 C.ar    
   8 C8             2.4359     1.3899    -0.3353 C.ar    
   9 C9             2.3707    -0.0589    -0.7341 C.3     
  10 C10            1.2752    -0.8107     0.0194 C.3     
  11 C11            1.3387     3.4453     0.3225 C.ar    
  12 C12            2.5591     4.0929     0.3278 C.ar    
  13 C13            3.7147     3.3899     0.0149 C.ar    
  14 C14            3.6536     2.0437    -0.3147 C.ar    
  15 O15            4.9157     4.0258     0.0313 O.3     
  16 C16            4.9111     5.4121     0.3783 C.3     
  17 H17           -4.2713     0.7570     0.0039 H       
  18 H18           -3.8212     2.3756     0.0241 H       
  19 H19            2.1733    -0.1235    -1.8041 H       
  20 H20            3.3317    -0.5281    -0.5235 H       
  21 H21            1.5890    -0.9710     1.0509 H       
  22 H22            1.1009    -1.7740    -0.4600 H       
  23 H23            0.4355     3.9848     0.5664 H       
  24 H24            2.6140     5.1429     0.5742 H       
  25 H25            4.5586     1.5057    -0.5552 H       
  26 H26            4.2977     5.9630    -0.3346 H       
  27 H27            4.5013     5.5343     1.3809 H       
  28 H28            5.9308     5.7963     0.3533 H       
@<TRIPOS>BOND
   1    1    2 2
   2    1    7 1
   3    1    5 1
   4    2    3 1
   5    2   10 1
   6    3    4 1
   7    4    5 2
   8    4    6 1
   9    6   17 1
  10    6   18 1
  11    7    8 ar
  12    7   11 ar
  13    8    9 1
  14    8   14 ar
  15    9   10 1
  16    9   19 1
  17    9   20 1
  18   10   21 1
  19   10   22 1
  20   11   12 ar
  21   11   23 1
  22   12   13 ar
  23   12   24 1
  24   13   14 ar
  25   13   15 1
  26   14   25 1
  27   15   16 1
  28   16   26 1
  29   16   27 1
  30   16   28 1

#	End of record

