#	Name: ASD01209027
#	Creating user name:	WinNT
#	Creation time:	15. 06. 2019 19:10

#	Modifying user name:	WinNT
#	Modification time:	15. 06. 2019 19:10

#	Program:	/corina/corina34_cracker 3.40 0067  02.08.2006

@<TRIPOS>MOLECULE
ASD01209027
  58   62    0    0    0
SMALL
NO_CHARGES


@<TRIPOS>ATOM
   1 C1            -2.2064     1.6115    -0.9285 C.3     
   2 C2            -2.1678     0.0887    -1.0902 C.3     
   3 C3            -1.4198    -0.2578    -2.3813 C.3     
   4 C4            -2.1068     0.4345    -3.5613 C.3     
   5 C5            -2.8630     2.2316    -2.1647 C.3     
   6 C6            -1.4428    -0.5345     0.1043 C.3     
   7 C7            -1.5300    -2.0594     0.0148 C.3     
   8 C8            -0.7065    -2.6752     1.1166 C.2     
   9 N9             0.6325    -2.5222     1.1230 N.am    
  10 C10            1.4083    -3.1798     2.0875 C.2     
  11 N11           -2.9267    -2.4779     0.1569 N.pl3   
  12 C12            0.9244    -4.0235     3.1001 C.2     
  13 C13            1.9838    -4.4583     3.8194 C.2     
  14 N14            3.0977    -3.9135     3.2865 N.pl3   
  15 N15            2.7144    -3.1191     2.1983 N.2     
  16 C16           -3.6441    -3.1747    -0.7770 C.ar    
  17 C17           -4.9315    -3.3639    -0.2355 C.ar    
  18 C18           -4.9238    -2.7320     1.0791 C.2     
  19 N19           -3.7359    -2.2336     1.2708 N.2     
  20 O20           -1.2489    -3.3085     1.9975 O.2     
  21 O21           -2.1365     1.8449    -3.3329 O.3     
  22 C22            4.4684    -4.1204     3.7604 C.3     
  23 N23           -3.3574    -3.6516    -1.9820 N.ar    
  24 C24           -4.2516    -4.3034    -2.6932 C.ar    
  25 C25           -5.5369    -4.5242    -2.2191 C.ar    
  26 C26           -5.8927    -4.0560    -0.9811 C.ar    
  27 C27           -7.2698    -5.3933     1.0938 C.3     
  28 C28           -8.5188    -5.9082     1.8121 C.3     
  29 C29           -7.6804    -6.8609     0.9575 C.3     
  30 S30           -7.5153    -4.3177    -0.3460 S.o2    
  31 O31           -7.9438    -3.0262     0.0636 O.2     
  32 O32           -8.1887    -5.0183    -1.3828 O.2     
  33 H33           -2.7846     1.8690    -0.0411 H       
  34 H34           -1.1905     1.9928    -0.8258 H       
  35 H35           -3.1854    -0.2983    -1.1433 H       
  36 H36           -0.3880     0.0858    -2.3078 H       
  37 H37           -1.4354    -1.3371    -2.5328 H       
  38 H38           -1.5536     0.2262    -4.4771 H       
  39 H39           -3.1260     0.0606    -3.6589 H       
  40 H40           -3.8921     1.8811    -2.2441 H       
  41 H41           -2.8547     3.3178    -2.0744 H       
  42 H42           -0.3965    -0.2292     0.0940 H       
  43 H43           -1.9106    -0.1975     1.0294 H       
  44 H44           -1.1484    -2.3890    -0.9516 H       
  45 H45            1.0593    -1.9570     0.4603 H       
  46 H46           -0.1103    -4.2798     3.2737 H       
  47 H47            1.9453    -5.1232     4.6697 H       
  48 H48           -5.7523    -2.6890     1.7705 H       
  49 H49            4.9034    -4.9799     3.2502 H       
  50 H50            5.0641    -3.2325     3.5485 H       
  51 H51            4.4577    -4.3029     4.8349 H       
  52 H52           -3.9790    -4.6755    -3.6697 H       
  53 H53           -6.2533    -5.0617    -2.8226 H       
  54 H54           -6.3946    -5.1698     1.7039 H       
  55 H55           -8.4651    -6.0238     2.8946 H       
  56 H56           -9.4879    -5.6006     1.4195 H       
  57 H57           -8.0980    -7.1800     0.0026 H       
  58 H58           -7.0751    -7.6033     1.4777 H       
@<TRIPOS>BOND
   1    1    2 1
   2    1    5 1
   3    1   33 1
   4    1   34 1
   5    2    3 1
   6    2    6 1
   7    2   35 1
   8    3    4 1
   9    3   36 1
  10    3   37 1
  11    4   21 1
  12    4   38 1
  13    4   39 1
  14    5   21 1
  15    5   40 1
  16    5   41 1
  17    6    7 1
  18    6   42 1
  19    6   43 1
  20    7    8 1
  21    7   11 1
  22    7   44 1
  23    8    9 am
  24    8   20 2
  25    9   10 1
  26    9   45 1
  27   10   12 1
  28   10   15 2
  29   11   16 1
  30   11   19 1
  31   12   13 2
  32   12   46 1
  33   13   14 1
  34   13   47 1
  35   14   15 1
  36   14   22 1
  37   16   17 ar
  38   16   23 ar
  39   17   18 1
  40   17   26 ar
  41   18   19 2
  42   18   48 1
  43   22   49 1
  44   22   50 1
  45   22   51 1
  46   23   24 ar
  47   24   25 ar
  48   24   52 1
  49   25   26 ar
  50   25   53 1
  51   26   30 1
  52   27   28 1
  53   27   30 1
  54   27   29 1
  55   27   54 1
  56   28   29 1
  57   28   55 1
  58   28   56 1
  59   29   57 1
  60   29   58 1
  61   30   31 2
  62   30   32 2

#	End of record

