#	Name: ASD01881076
#	Creating user name:	WinNT
#	Creation time:	15. 06. 2019 19:41

#	Modifying user name:	WinNT
#	Modification time:	15. 06. 2019 19:41

#	Program:	/corina/corina34_cracker 3.40 0067  02.08.2006

@<TRIPOS>MOLECULE
ASD01881076
  44   46    0    0    0
SMALL
NO_CHARGES


@<TRIPOS>ATOM
   1 C1            -0.0169     1.3951     0.0097 C.ar    
   2 C2             0.0021    -0.0041     0.0020 C.ar    
   3 C3             1.2093    -0.6927    -0.0127 C.ar    
   4 C4             2.4035     0.0238    -0.0202 C.ar    
   5 C5             2.3732     1.4391    -0.0128 C.ar    
   6 C6             1.1476     2.1094     0.0024 C.ar    
   7 C7             3.7068    -0.6442    -0.0352 C.2     
   8 C8             4.8269     0.0960    -0.0415 C.2     
   9 N9             4.8012     1.4615    -0.0340 N.am    
  10 C10            3.6491     2.1602    -0.0207 C.2     
  11 C11            6.0709     2.1923    -0.0413 C.3     
  12 C12            6.5003     2.4543    -1.4863 C.3     
  13 C13            7.8263     3.2175    -1.4939 C.3     
  14 O14            3.6679     3.3782    -0.0143 O.2     
  15 Cl15           1.1045     3.8449     0.0110 Cl      
  16 C16           -1.2749    -0.7575     0.0101 C.ar    
  17 C17           -2.4992    -0.0788     0.0254 C.ar    
  18 C18           -3.6622    -0.8226     0.0320 C.ar    
  19 C19           -3.5804    -2.2124     0.0233 C.ar    
  20 N20           -2.4051    -2.8239     0.0093 N.ar    
  21 C21           -1.2730    -2.1500    -0.0032 C.ar    
  22 N22           -4.7457    -2.9675     0.0298 N.pl3   
  23 C23           -6.0486    -2.3045    -0.0648 C.3     
  24 C24           -4.6721    -4.4271     0.1314 C.3     
  25 H25           -0.9628     1.9162     0.0170 H       
  26 H26            1.2212    -1.7726    -0.0179 H       
  27 H27            3.7664    -1.7225    -0.0408 H       
  28 H28            5.7827    -0.4066    -0.0526 H       
  29 H29            5.9465     3.1421     0.4787 H       
  30 H30            6.8342     1.5994     0.4627 H       
  31 H31            6.6247     1.5045    -2.0063 H       
  32 H32            5.7370     3.0472    -1.9903 H       
  33 H33            8.1322     3.4042    -2.5233 H       
  34 H34            7.7018     4.1674    -0.9739 H       
  35 H35            8.5896     2.6247    -0.9899 H       
  36 H36           -2.5330     1.0007     0.0323 H       
  37 H37           -4.6244    -0.3321     0.0441 H       
  38 H38           -0.3338    -2.6831    -0.0148 H       
  39 H39           -6.3326    -2.2094    -1.1129 H       
  40 H40           -6.7968    -2.8968     0.4620 H       
  41 H41           -5.9859    -1.3141     0.3859 H       
  42 H42           -3.6283    -4.7350     0.1921 H       
  43 H43           -5.2006    -4.7562     1.0261 H       
  44 H44           -5.1328    -4.8762    -0.7485 H       
@<TRIPOS>BOND
   1    1    2 ar
   2    1    6 ar
   3    1   25 1
   4    2    3 ar
   5    2   16 1
   6    3    4 ar
   7    3   26 1
   8    4    5 ar
   9    4    7 1
  10    5    6 ar
  11    5   10 1
  12    6   15 1
  13    7    8 2
  14    7   27 1
  15    8    9 1
  16    8   28 1
  17    9   10 am
  18    9   11 1
  19   10   14 2
  20   11   12 1
  21   11   29 1
  22   11   30 1
  23   12   13 1
  24   12   31 1
  25   12   32 1
  26   13   33 1
  27   13   34 1
  28   13   35 1
  29   16   17 ar
  30   16   21 ar
  31   17   18 ar
  32   17   36 1
  33   18   19 ar
  34   18   37 1
  35   19   20 ar
  36   19   22 1
  37   20   21 ar
  38   21   38 1
  39   22   23 1
  40   22   24 1
  41   23   39 1
  42   23   40 1
  43   23   41 1
  44   24   42 1
  45   24   43 1
  46   24   44 1

#	End of record

