#	Name: ASD02560330
#	Creating user name:	WinNT
#	Creation time:	15. 06. 2019 20:25

#	Modifying user name:	WinNT
#	Modification time:	15. 06. 2019 20:25

#	Program:	/corina/corina34_cracker 3.40 0067  02.08.2006

@<TRIPOS>MOLECULE
ASD02560330
  33   35    0    0    0
SMALL
NO_CHARGES


@<TRIPOS>ATOM
   1 C1            -0.0050     1.3393     0.1140 C.2     
   2 C2            -0.0079     0.0016    -0.0678 C.2     
   3 C3            -1.2302    -0.6098     0.1521 C.2     
   4 N4            -2.2183     0.1666     0.5032 N.2     
   5 S5            -1.6108     1.7483     0.5755 S.3     
   6 N6            -1.3977    -1.9906     0.0048 N.pl3   
   7 C7             1.1631     2.2777    -0.0473 C.3     
   8 C8             1.2138     2.7771    -1.4683 C.ar    
   9 C9             0.5361     3.9303    -1.8210 C.ar    
  10 C10            0.5834     4.3885    -3.1257 C.ar    
  11 C11            1.3075     3.6942    -4.0765 C.ar    
  12 C12            1.9844     2.5416    -3.7248 C.ar    
  13 C13            1.9426     2.0855    -2.4191 C.ar    
  14 C14           -2.6705    -2.5563     0.1199 C.ar    
  15 Cl15          -0.3738     4.8022    -0.6271 Cl      
  16 Cl16           2.7933     0.6382    -1.9774 Cl      
  17 C17           -3.7906    -1.8363    -0.2761 C.ar    
  18 C18           -2.8176    -3.8419     0.6253 C.ar    
  19 C19           -4.0765    -4.3984     0.7380 C.ar    
  20 C20           -5.1909    -3.6765     0.3480 C.ar    
  21 C21           -5.0470    -2.3978    -0.1612 C.ar    
  22 Cl22          -6.7719    -4.3792     0.4910 Cl      
  23 H23            0.8739    -0.5482    -0.3620 H       
  24 H24           -0.6305    -2.5556    -0.1772 H       
  25 H25            1.0465     3.1230     0.6309 H       
  26 H26            2.0880     1.7500     0.1855 H       
  27 H27            0.0541     5.2887    -3.4012 H       
  28 H28            1.3441     4.0523    -5.0948 H       
  29 H29            2.5495     1.9991    -4.4683 H       
  30 H30           -3.6789    -0.8382    -0.6732 H       
  31 H31           -1.9482    -4.4059     0.9295 H       
  32 H32           -4.1914    -5.3979     1.1305 H       
  33 H33           -5.9185    -1.8366    -0.4645 H       
@<TRIPOS>BOND
   1    1    2 2
   2    1    7 1
   3    1    5 1
   4    2    3 1
   5    2   23 1
   6    3    4 2
   7    3    6 1
   8    4    5 1
   9    6   14 1
  10    6   24 1
  11    7    8 1
  12    7   25 1
  13    7   26 1
  14    8    9 ar
  15    8   13 ar
  16    9   10 ar
  17    9   15 1
  18   10   11 ar
  19   10   27 1
  20   11   12 ar
  21   11   28 1
  22   12   13 ar
  23   12   29 1
  24   13   16 1
  25   14   18 ar
  26   14   17 ar
  27   17   21 ar
  28   17   30 1
  29   18   19 ar
  30   18   31 1
  31   19   20 ar
  32   19   32 1
  33   20   21 ar
  34   20   22 1
  35   21   33 1

#	End of record

