#	Name: ASD02670006
#	Creating user name:	WinNT
#	Creation time:	15. 06. 2019 20:26

#	Modifying user name:	WinNT
#	Modification time:	15. 06. 2019 20:26

#	Program:	/corina/corina34_cracker 3.40 0067  02.08.2006

@<TRIPOS>MOLECULE
ASD02670006
  33   33    0    0    0
SMALL
NO_CHARGES


@<TRIPOS>ATOM
   1 C1            -0.0143     1.2041     0.0087 C.2     
   2 O2             0.0021    -0.0041     0.0020 O.2     
   3 C3            -5.6703    -1.8748     0.0188 C.3     
   4 O4             1.1389     1.8910     0.0013 O.3     
   5 C5            -6.8819    -1.2694    -0.6926 C.3     
   6 C6            -6.5452    -1.0396    -2.1673 C.3     
   7 C7            -8.0690    -2.2285    -0.5839 C.3     
   8 C8            -1.3295     1.9397     0.0189 C.3     
   9 C9            -1.4284     2.8250    -1.2251 C.3     
  10 C10           -2.4615     0.9450     0.0189 C.ar    
  11 C11           -3.3709     0.9327     1.0599 C.ar    
  12 C12           -4.4093     0.0202     1.0599 C.ar    
  13 C13           -4.5385    -0.8797     0.0186 C.ar    
  14 C14           -3.6294    -0.8672    -1.0227 C.ar    
  15 C15           -2.5938     0.0485    -1.0250 C.ar    
  16 H16           -5.9377    -2.1207     1.0465 H       
  17 H17           -5.3582    -2.7802    -0.5018 H       
  18 H18            1.9569     1.3754    -0.0092 H       
  19 H19           -7.1393    -0.3184    -0.2263 H       
  20 H20           -5.6995    -0.3564    -2.2447 H       
  21 H21           -6.2879    -1.9906    -2.6336 H       
  22 H22           -7.4084    -0.6083    -2.6742 H       
  23 H23           -8.3089    -2.3921     0.4667 H       
  24 H24           -8.9322    -1.7971    -1.0907 H       
  25 H25           -7.8117    -3.1795    -1.0502 H       
  26 H26           -1.3915     2.5607     0.9126 H       
  27 H27           -2.3797     3.3571    -1.2177 H       
  28 H28           -0.6096     3.5445    -1.2251 H       
  29 H29           -1.3664     2.2040    -2.1188 H       
  30 H30           -3.2699     1.6359     1.8734 H       
  31 H31           -5.1194     0.0102     1.8736 H       
  32 H32           -3.7302    -1.5705    -1.8360 H       
  33 H33           -1.8859     0.0610    -1.8406 H       
@<TRIPOS>BOND
   1    1    2 2
   2    1    4 1
   3    1    8 1
   4    3    5 1
   5    3   13 1
   6    3   16 1
   7    3   17 1
   8    4   18 1
   9    5    6 1
  10    5    7 1
  11    5   19 1
  12    6   20 1
  13    6   21 1
  14    6   22 1
  15    7   23 1
  16    7   24 1
  17    7   25 1
  18    8    9 1
  19    8   10 1
  20    8   26 1
  21    9   27 1
  22    9   28 1
  23    9   29 1
  24   10   11 ar
  25   10   15 ar
  26   11   12 ar
  27   11   30 1
  28   12   13 ar
  29   12   31 1
  30   13   14 ar
  31   14   15 ar
  32   14   32 1
  33   15   33 1

#	End of record

