#	Name: ASD01810436
#	Creating user name:	WinNT
#	Creation time:	15. 06. 2019 19:24

#	Modifying user name:	WinNT
#	Modification time:	15. 06. 2019 19:24

#	Program:	/corina/corina34_cracker 3.40 0067  02.08.2006

@<TRIPOS>MOLECULE
ASD01810436
  38   40    0    0    0
SMALL
NO_CHARGES


@<TRIPOS>ATOM
   1 C1            -0.0162     1.3449     0.0094 C.2     
   2 C2             0.0021    -0.0041     0.0020 C.2     
   3 N3             1.1267     2.0753     0.0024 N.pl3   
   4 C4             2.3435     1.5074    -0.0127 C.2     
   5 C5             2.4724     0.1325    -0.0218 C.2     
   6 C6             1.2470    -0.6815    -0.0136 C.2     
   7 O7             1.3006    -1.9011    -0.0214 O.2     
   8 C8             3.8000    -0.5015    -0.0394 C.2     
   9 C9             1.0303     3.5371     0.0113 C.3     
  10 C10            1.0108     4.0306     1.4350 C.ar    
  11 O11            4.8020     0.1866    -0.0461 O.2     
  12 O12            3.9052    -1.8452    -0.0481 O.3     
  13 C13            2.1986     4.3354     2.0750 C.ar    
  14 C14            2.1866     4.7878     3.3789 C.ar    
  15 C15            0.9750     4.9373     4.0505 C.ar    
  16 C16           -0.2186     4.6289     3.4010 C.ar    
  17 C17           -0.1952     4.1826     2.0952 C.ar    
  18 C18            0.9558     5.4229     5.4526 C.ar    
  19 C19           -0.2558     5.5724     6.1243 C.ar    
  20 C20           -0.2678     6.0244     7.4283 C.ar    
  21 C21            0.9200     6.3292     8.0683 C.ar    
  22 C22            2.1256     6.1830     7.4061 C.ar    
  23 C23            2.1497     5.7255     6.1042 C.ar    
  24 Br24          -1.6169    -0.9812     0.0129 Br      
  25 H25           -0.9669     1.8573     0.0167 H       
  26 H26            3.2263     2.1295    -0.0181 H       
  27 H27            1.8894     3.9611    -0.5085 H       
  28 H28            0.1134     3.8437    -0.4922 H       
  29 H29            4.7983    -2.2156    -0.0596 H       
  30 H30            3.1371     4.2187     1.5535 H       
  31 H31            3.1146     5.0251     3.8777 H       
  32 H32           -1.1604     4.7430     3.9170 H       
  33 H33           -1.1197     3.9433     1.5907 H       
  34 H34           -1.1838     5.3354     5.6253 H       
  35 H35           -1.2063     6.1407     7.9499 H       
  36 H36            0.9061     6.6830     9.0886 H       
  37 H37            3.0501     6.4228     7.9104 H       
  38 H38            3.0916     5.6114     5.5882 H       
@<TRIPOS>BOND
   1    1    2 2
   2    1    3 1
   3    1   25 1
   4    2   24 1
   5    2    6 1
   6    3    4 1
   7    3    9 1
   8    4    5 2
   9    4   26 1
  10    5    6 1
  11    5    8 1
  12    6    7 2
  13    8   11 2
  14    8   12 1
  15    9   10 1
  16    9   27 1
  17    9   28 1
  18   10   13 ar
  19   10   17 ar
  20   12   29 1
  21   13   14 ar
  22   13   30 1
  23   14   15 ar
  24   14   31 1
  25   15   16 ar
  26   15   18 1
  27   16   17 ar
  28   16   32 1
  29   17   33 1
  30   18   19 ar
  31   18   23 ar
  32   19   20 ar
  33   19   34 1
  34   20   21 ar
  35   20   35 1
  36   21   22 ar
  37   21   36 1
  38   22   23 ar
  39   22   37 1
  40   23   38 1

#	End of record

