#	Name: ASD00122037
#	Creating user name:	WinNT
#	Creation time:	15. 06. 2019 18:31

#	Modifying user name:	WinNT
#	Modification time:	15. 06. 2019 18:31

#	Program:	/corina/corina34_cracker 3.40 0067  02.08.2006

@<TRIPOS>MOLECULE
ASD00122037
  35   35    0    0    0
SMALL
NO_CHARGES


@<TRIPOS>ATOM
   1 C1            -0.0166     1.3728     0.0096 C.ar    
   2 C2             0.0021    -0.0041     0.0020 C.ar    
   3 C3             1.2226    -0.6843    -0.0133 C.ar    
   4 C4             2.4197     0.0363    -0.0208 C.ar    
   5 C5             2.3926     1.4130    -0.0132 C.ar    
   6 C6             1.1765     2.0859     0.0020 C.ar    
   7 O7             1.1539     3.4428     0.0095 O.3     
   8 C8            -0.1299     4.0702     0.0251 C.3     
   9 C9             0.0453     5.5901     0.0316 C.3     
  10 C10            1.2471    -2.1601    -0.0209 C.2     
  11 O11            0.2045    -2.7855    -0.0140 O.2     
  12 N12            2.4253    -2.8144    -0.0357 N.am    
  13 C13            2.4497    -4.2792    -0.0433 C.3     
  14 C14            1.7250    -4.7949    -1.2882 C.3     
  15 C15            3.9004    -4.7650    -0.0598 C.3     
  16 C16            1.7492    -4.8074     1.2102 C.3     
  17 H17           -0.9595     1.8993     0.0169 H       
  18 H18           -0.9253    -0.5575     0.0082 H       
  19 H19            3.3651    -0.4858    -0.0323 H       
  20 H20            3.3175     1.9707    -0.0186 H       
  21 H21           -0.6904     3.7729    -0.8612 H       
  22 H22           -0.6735     3.7633     0.9187 H       
  23 H23            0.5888     5.8971    -0.8619 H       
  24 H24           -0.9340     6.0687     0.0435 H       
  25 H25            0.6058     5.8875     0.9179 H       
  26 H26            3.2571    -2.3155    -0.0412 H       
  27 H27            2.2240    -4.4185    -2.1812 H       
  28 H28            1.7431    -5.8847    -1.2938 H       
  29 H29            0.6914    -4.4487    -1.2764 H       
  30 H30            4.4168    -4.3977     0.8270 H       
  31 H31            3.9186    -5.8549    -0.0655 H       
  32 H32            4.3995    -4.3887    -0.9528 H       
  33 H33            0.7157    -4.4613     1.2220 H       
  34 H34            1.7674    -5.8973     1.2045 H       
  35 H35            2.2656    -4.4401     2.0970 H       
@<TRIPOS>BOND
   1    1    2 ar
   2    1    6 ar
   3    1   17 1
   4    2    3 ar
   5    2   18 1
   6    3    4 ar
   7    3   10 1
   8    4    5 ar
   9    4   19 1
  10    5    6 ar
  11    5   20 1
  12    6    7 1
  13    7    8 1
  14    8    9 1
  15    8   21 1
  16    8   22 1
  17    9   23 1
  18    9   24 1
  19    9   25 1
  20   10   11 2
  21   10   12 am
  22   12   13 1
  23   12   26 1
  24   13   14 1
  25   13   15 1
  26   13   16 1
  27   14   27 1
  28   14   28 1
  29   14   29 1
  30   15   30 1
  31   15   31 1
  32   15   32 1
  33   16   33 1
  34   16   34 1
  35   16   35 1

#	End of record

