#	Name: ASD01948197
#	Creating user name:	WinNT
#	Creation time:	15. 06. 2019 20:13

#	Modifying user name:	WinNT
#	Modification time:	15. 06. 2019 20:13

#	Program:	/corina/corina34_cracker 3.40 0067  02.08.2006

@<TRIPOS>MOLECULE
ASD01948197
  76   82    0    0    0
SMALL
NO_CHARGES


@<TRIPOS>ATOM
   1 C1            -3.5440     4.0715    -4.4335 C.ar    
   2 C2            -4.1001     3.3260    -5.4838 C.ar    
   3 C3            -3.7874     3.6338    -6.8115 C.ar    
   4 C4            -2.9282     4.6753    -7.0906 C.ar    
   5 C5            -2.3715     5.4209    -6.0524 C.ar    
   6 C6            -2.6808     5.1250    -4.7279 C.ar    
   7 F7            -2.6247     4.9737    -8.3728 F       
   8 O8            -4.0179     3.5551    -3.2805 O.3     
   9 C9            -4.8452     2.5228    -3.5220 C.2     
  10 C10           -4.9507     2.3162    -4.8415 C.2     
  11 F11           -4.3258     2.9119    -7.8186 F       
  12 N12           -1.9785     6.0334    -3.9351 N.am    
  13 C13           -0.9307     7.1306    -7.1503 C.ar    
  14 C14            0.2819     6.6832    -7.6639 C.ar    
  15 C15           -1.5865     8.1939    -7.7541 C.ar    
  16 C16           -1.0340     8.8054    -8.8632 C.ar    
  17 C17            0.1718     8.3594    -9.3727 C.ar    
  18 C18            0.8294     7.2994    -8.7740 C.ar    
  19 I19            1.0042     9.2901   -11.0549 I       
  20 F20            0.9240     5.6485    -7.0789 F       
  21 C21           -0.6361     5.0349    -1.7596 C.3     
  22 C22           -0.6581     3.6108    -2.3186 C.3     
  23 C23           -1.5989     2.7468    -1.4764 C.3     
  24 O24           -1.0572     2.5936    -0.1630 O.3     
  25 C25           -1.7498     1.3714    -2.1295 C.3     
  26 O26           -2.7170     0.6054    -1.4087 O.3     
  27 C27           -0.0880     5.2299    -0.3445 C.3     
  28 C28            0.7302     5.6914    -1.5522 C.3     
  29 C29           -2.0418     2.3824     0.8508 C.3     
  30 C30           -1.3583     2.1224     2.1685 C.ar    
  31 C31           -1.1465     3.1623     3.0543 C.ar    
  32 C32           -0.9481     0.8430     2.4938 C.ar    
  33 C33           -0.3212     0.6045     3.7025 C.ar    
  34 C34           -0.1039     1.6455     4.5857 C.ar    
  35 C35           -0.5195     2.9238     4.2630 C.ar    
  36 C36           -2.9346    -0.7035    -1.9393 C.3     
  37 C37           -3.9674    -1.4180    -1.1064 C.ar    
  38 C38           -5.3075    -1.3156    -1.4298 C.ar    
  39 C39           -6.2549    -1.9710    -0.6657 C.ar    
  40 C40           -5.8622    -2.7290     0.4215 C.ar    
  41 C41           -4.5221    -2.8321     0.7443 C.ar    
  42 C42           -3.5743    -2.1803    -0.0223 C.ar    
  43 N43           -1.4920     6.5047    -6.0283 N.am    
  44 C44           -1.2732     6.8455    -4.7446 C.2     
  45 O45           -0.5529     7.7534    -4.3728 O.2     
  46 S46           -2.0079     6.1012    -2.2808 S.o2    
  47 O47           -1.7244     7.4609    -1.9807 O.2     
  48 O48           -3.2547     5.5178    -1.9283 O.2     
  49 H49           -5.3506     1.9443    -2.7629 H       
  50 H50           -5.5430     1.5591    -5.3339 H       
  51 H51           -2.5284     8.5432    -7.3576 H       
  52 H52           -1.5448     9.6328    -9.3332 H       
  53 H53            1.7710     6.9532    -9.1740 H       
  54 H54           -1.0091     3.6309    -3.3503 H       
  55 H55            0.3476     3.1918    -2.2851 H       
  56 H56           -2.5749     3.2280    -1.4130 H       
  57 H57           -2.0788     1.4934    -3.1615 H       
  58 H58           -0.7906     0.8540    -2.1127 H       
  59 H59           -0.5514     5.9993     0.2731 H       
  60 H60            0.2570     4.3437     0.1882 H       
  61 H61            1.6135     5.1088    -1.8140 H       
  62 H62            0.8051     6.7643    -1.7291 H       
  63 H63           -2.6710     3.2683     0.9365 H       
  64 H64           -2.6581     1.5234     0.5855 H       
  65 H65           -1.4706     4.1611     2.8019 H       
  66 H66           -1.1179     0.0297     1.8038 H       
  67 H67           -0.0014    -0.3952     3.9569 H       
  68 H68            0.3856     1.4591     5.5302 H       
  69 H69           -0.3498     3.7371     4.9530 H       
  70 H70           -3.2881    -0.6246    -2.9674 H       
  71 H71           -2.0000    -1.2640    -1.9185 H       
  72 H72           -5.6143    -0.7234    -2.2792 H       
  73 H73           -7.3020    -1.8904    -0.9180 H       
  74 H74           -6.6025    -3.2405     1.0189 H       
  75 H75           -4.2153    -3.4241     1.5940 H       
  76 H76           -2.5273    -2.2608     0.2299 H       
@<TRIPOS>BOND
   1    1    2 ar
   2    1    8 1
   3    1    6 ar
   4    2    3 ar
   5    2   10 1
   6    3    4 ar
   7    3   11 1
   8    4    5 ar
   9    4    7 1
  10    5    6 ar
  11    5   43 1
  12    6   12 1
  13    8    9 1
  14    9   10 2
  15    9   49 1
  16   10   50 1
  17   12   46 am
  18   12   44 am
  19   13   14 ar
  20   13   15 ar
  21   13   43 1
  22   14   20 1
  23   14   18 ar
  24   15   16 ar
  25   15   51 1
  26   16   17 ar
  27   16   52 1
  28   17   18 ar
  29   17   19 1
  30   18   53 1
  31   21   22 1
  32   21   27 1
  33   21   46 1
  34   21   28 1
  35   22   23 1
  36   22   54 1
  37   22   55 1
  38   23   24 1
  39   23   25 1
  40   23   56 1
  41   24   29 1
  42   25   26 1
  43   25   57 1
  44   25   58 1
  45   26   36 1
  46   27   28 1
  47   27   59 1
  48   27   60 1
  49   28   61 1
  50   28   62 1
  51   29   30 1
  52   29   63 1
  53   29   64 1
  54   30   31 ar
  55   30   32 ar
  56   31   35 ar
  57   31   65 1
  58   32   33 ar
  59   32   66 1
  60   33   34 ar
  61   33   67 1
  62   34   35 ar
  63   34   68 1
  64   35   69 1
  65   36   37 1
  66   36   70 1
  67   36   71 1
  68   37   38 ar
  69   37   42 ar
  70   38   39 ar
  71   38   72 1
  72   39   40 ar
  73   39   73 1
  74   40   41 ar
  75   40   74 1
  76   41   42 ar
  77   41   75 1
  78   42   76 1
  79   43   44 am
  80   44   45 2
  81   46   47 2
  82   46   48 2

#	End of record

