#	Name: ASD01908037
#	Creating user name:	WinNT
#	Creation time:	15. 06. 2019 19:54

#	Modifying user name:	WinNT
#	Modification time:	15. 06. 2019 19:54

#	Program:	/corina/corina34_cracker 3.40 0067  02.08.2006

@<TRIPOS>MOLECULE
ASD01908037
  35   37    0    0    0
SMALL
NO_CHARGES


@<TRIPOS>ATOM
   1 S1            -0.0211     1.7042     0.0114 S.3     
   2 C2             0.0021    -0.0041     0.0020 C.2     
   3 N3             1.2217    -0.4503    -0.0120 N.2     
   4 C4             2.1914     0.4434    -0.0165 C.2     
   5 C5             1.7400     1.7466    -0.0052 C.2     
   6 C6             2.5563     2.9231    -0.0067 C.1     
   7 N7             3.2040     3.8564    -0.0078 N.1     
   8 N8             5.5193    -0.9604     0.3306 N.pl3   
   9 N9             5.7821     0.1586    -0.4686 N.2     
  10 C10            4.6577     0.7860    -0.6890 C.2     
  11 C11            3.6279     0.0822    -0.0317 C.2     
  12 C12            4.1973    -0.9935     0.5895 C.2     
  13 C13            6.5104    -1.9320     0.7997 C.3     
  14 C14            7.2618    -2.4925    -0.3802 C.ar    
  15 C15            8.4171    -1.8733    -0.8202 C.ar    
  16 C16            9.1077    -2.3852    -1.9016 C.ar    
  17 C17            8.6411    -3.5216    -2.5462 C.ar    
  18 C18            7.4817    -4.1411    -2.1028 C.ar    
  19 C19            6.7978    -3.6285    -1.0175 C.ar    
  20 O20            9.3185    -4.0269    -3.6105 O.3     
  21 C21            8.7799    -5.1992    -4.2252 C.3     
  22 N22           -1.1230    -0.8019     0.0092 N.pl3   
  23 H23            4.5379     1.6868    -1.2727 H       
  24 H24            3.6813    -1.7359     1.1802 H       
  25 H25            7.2100    -1.4400     1.4755 H       
  26 H26            6.0048    -2.7413     1.3263 H       
  27 H27            8.7797    -0.9885    -0.3182 H       
  28 H28           10.0099    -1.9010    -2.2451 H       
  29 H29            7.1164    -5.0258    -2.6030 H       
  30 H30            5.8978    -4.1131    -0.6690 H       
  31 H31            8.7388    -6.0065    -3.4940 H       
  32 H32            7.7749    -4.9886    -4.5908 H       
  33 H33            9.4152    -5.4965    -5.0595 H       
  34 H34           -2.0045    -0.3973     0.0200 H       
  35 H35           -1.0328    -1.7677     0.0035 H       
@<TRIPOS>BOND
   1    1    2 1
   2    1    5 1
   3    2    3 2
   4    2   22 1
   5    3    4 1
   6    4    5 2
   7    4   11 1
   8    5    6 1
   9    6    7 3
  10    8    9 1
  11    8   12 1
  12    8   13 1
  13    9   10 2
  14   10   11 1
  15   10   23 1
  16   11   12 2
  17   12   24 1
  18   13   14 1
  19   13   25 1
  20   13   26 1
  21   14   15 ar
  22   14   19 ar
  23   15   16 ar
  24   15   27 1
  25   16   17 ar
  26   16   28 1
  27   17   18 ar
  28   17   20 1
  29   18   19 ar
  30   18   29 1
  31   19   30 1
  32   20   21 1
  33   21   31 1
  34   21   32 1
  35   21   33 1
  36   22   34 1
  37   22   35 1

#	End of record

