#	Name: ASD05380021
#	Creating user name:	WinNT
#	Creation time:	15. 06. 2019 20:59

#	Modifying user name:	WinNT
#	Modification time:	15. 06. 2019 20:59

#	Program:	/corina/corina34_cracker 3.40 0067  02.08.2006

@<TRIPOS>MOLECULE
ASD05380021
  63   68    0    0    0
SMALL
NO_CHARGES


@<TRIPOS>ATOM
   1 C1             0.0161     1.7614    -0.1398 C.ar    
   2 C2             0.2297     0.3651    -0.1743 C.ar    
   3 C3             1.0891     2.6357    -0.2983 C.ar    
   4 C4             2.3561     2.1282    -0.4883 C.ar    
   5 C5             2.5695     0.7567    -0.5232 C.ar    
   6 C6             1.5228    -0.1245    -0.3676 C.ar    
   7 C7             0.8658     4.1256    -0.2627 C.3     
   8 N8            -0.8300    -0.4670    -0.0172 N.2     
   9 C9            -2.0323    -0.0114     0.1635 C.2     
  10 N10           -2.3299     1.3154     0.2103 N.am    
  11 C11           -1.3560     2.2449     0.0720 C.2     
  12 C12           -3.6552     1.7228     0.4088 C.ar    
  13 C13           -4.5977     1.5372    -0.5939 C.ar    
  14 C14           -4.0305     2.3081     1.6109 C.ar    
  15 C15           -5.3382     2.7084     1.8037 C.ar    
  16 C16           -6.2734     2.5265     0.8015 C.ar    
  17 C17           -5.9039     1.9396    -0.3949 C.ar    
  18 C18           -3.1553    -1.0026     0.3292 C.3     
  19 N19           -2.8823    -2.1904    -0.4837 N.pl3   
  20 C20           -1.7403    -2.9377    -0.2551 C.ar    
  21 N21           -0.8812    -2.5916     0.6979 N.ar    
  22 O22           -1.6077     3.4352     0.1119 O.2     
  23 C23           -1.4658    -4.0830    -1.0215 C.ar    
  24 C24           -0.2912    -4.8021    -0.7442 C.ar    
  25 N25            0.5127    -4.3781     0.2257 N.ar    
  26 C26            0.2128    -3.2999     0.9235 C.ar    
  27 N27           -2.0937    -4.7208    -2.0392 N.2     
  28 C28           -1.3961    -5.7599    -2.3951 C.2     
  29 N29           -0.2742    -5.8534    -1.6255 N.pl3   
  30 C30           -3.2662    -1.4063     1.8008 C.3     
  31 O31           -4.4024    -2.2548     1.9777 O.3     
  32 C32           -4.5979    -2.6912     3.3243 C.3     
  33 C33           -5.8166    -3.5749     3.3940 C.ar    
  34 C34           -5.6918    -4.9398     3.2143 C.ar    
  35 C35           -6.8097    -5.7504     3.2783 C.ar    
  36 C36           -8.0524    -5.1961     3.5223 C.ar    
  37 C37           -8.1770    -3.8313     3.7030 C.ar    
  38 C38           -7.0584    -3.0212     3.6433 C.ar    
  39 F39            1.0534    -2.9047     1.9045 F       
  40 H40            3.1902     2.8031    -0.6115 H       
  41 H41            3.5690     0.3762    -0.6738 H       
  42 H42            1.7012    -1.1893    -0.3958 H       
  43 H43            0.8463     4.4655     0.7728 H       
  44 H44            1.6744     4.6271    -0.7945 H       
  45 H45           -0.0849     4.3620    -0.7406 H       
  46 H46           -4.3097     1.0789    -1.5284 H       
  47 H47           -3.3007     2.4497     2.3943 H       
  48 H48           -5.6307     3.1636     2.7384 H       
  49 H49           -7.2956     2.8397     0.9549 H       
  50 H50           -6.6365     1.7993    -1.1759 H       
  51 H51           -4.0917    -0.5482     0.0055 H       
  52 H52           -3.5020    -2.4530    -1.1823 H       
  53 H53           -1.6660    -6.4471    -3.1833 H       
  54 H54            0.4105    -6.5375    -1.6897 H       
  55 H55           -2.3641    -1.9399     2.1002 H       
  56 H56           -3.3807    -0.5131     2.4149 H       
  57 H57           -3.7234    -3.2514     3.6553 H       
  58 H58           -4.7400    -1.8246     3.9700 H       
  59 H59           -4.7210    -5.3728     3.0236 H       
  60 H60           -6.7124    -6.8167     3.1371 H       
  61 H61           -8.9259    -5.8293     3.5716 H       
  62 H62           -9.1479    -3.3982     3.8933 H       
  63 H63           -7.1558    -1.9549     3.7845 H       
@<TRIPOS>BOND
   1    1    2 ar
   2    1    3 ar
   3    1   11 1
   4    2    8 1
   5    2    6 ar
   6    3    4 ar
   7    3    7 1
   8    4    5 ar
   9    4   40 1
  10    5    6 ar
  11    5   41 1
  12    6   42 1
  13    7   43 1
  14    7   44 1
  15    7   45 1
  16    8    9 2
  17    9   10 1
  18    9   18 1
  19   10   11 am
  20   10   12 1
  21   11   22 2
  22   12   13 ar
  23   12   14 ar
  24   13   17 ar
  25   13   46 1
  26   14   15 ar
  27   14   47 1
  28   15   16 ar
  29   15   48 1
  30   16   17 ar
  31   16   49 1
  32   17   50 1
  33   18   19 1
  34   18   30 1
  35   18   51 1
  36   19   20 1
  37   19   52 1
  38   20   21 ar
  39   20   23 ar
  40   21   26 ar
  41   23   24 ar
  42   23   27 1
  43   24   25 ar
  44   24   29 1
  45   25   26 ar
  46   26   39 1
  47   27   28 2
  48   28   29 1
  49   28   53 1
  50   29   54 1
  51   30   31 1
  52   30   55 1
  53   30   56 1
  54   31   32 1
  55   32   33 1
  56   32   57 1
  57   32   58 1
  58   33   34 ar
  59   33   38 ar
  60   34   35 ar
  61   34   59 1
  62   35   36 ar
  63   35   60 1
  64   36   37 ar
  65   36   61 1
  66   37   38 ar
  67   37   62 1
  68   38   63 1

#	End of record

