#	Name: ASD06770009
#	Creating user name:	WinNT
#	Creation time:	15. 06. 2019 21:08

#	Modifying user name:	WinNT
#	Modification time:	15. 06. 2019 21:08

#	Program:	/corina/corina34_cracker 3.40 0067  02.08.2006

@<TRIPOS>MOLECULE
ASD06770009
  41   42    0    0    0
SMALL
NO_CHARGES


@<TRIPOS>ATOM
   1 C1            -0.0187     1.5258     0.0104 C.3     
   2 C2             0.0021    -0.0041     0.0020 C.3     
   3 C3             0.7421    -0.5109     1.2415 C.3     
   4 C4             2.1775     0.0187     1.2307 C.3     
   5 C5             2.1567     1.5485     1.2391 C.3     
   6 C6             1.4167     2.0553    -0.0004 C.3     
   7 C7            -0.7475     2.0250    -1.2105 C.2     
   8 O8            -1.2036     1.2379    -2.0057 O.2     
   9 O9            -0.8901     3.3440    -1.4144 O.3     
  10 O10            2.8686    -0.4547     2.3884 O.3     
  11 C11            4.2739    -0.6283     2.1959 C.3     
  12 C12            5.0201    -0.3967     3.5215 C.3     
  13 C13            5.7470    -1.7160     3.8543 C.3     
  14 C14            5.9058    -2.4187     2.4831 C.3     
  15 C15            4.5734    -2.0803     1.7694 C.3     
  16 C16           -1.6033     3.7526    -2.6114 C.3     
  17 C17           -1.6647     5.2802    -2.6719 C.3     
  18 H18           -0.5289     1.8773     0.9072 H       
  19 H19           -1.0205    -0.3814     0.0098 H       
  20 H20            0.5123    -0.3556    -0.8948 H       
  21 H21            0.2319    -0.1594     2.1383 H       
  22 H22            0.7568    -1.6008     1.2356 H       
  23 H23            2.6876    -0.3328     0.3339 H       
  24 H24            1.6465     1.9000     2.1359 H       
  25 H25            3.1793     1.9258     1.2314 H       
  26 H26            1.9269     1.7038    -0.8972 H       
  27 H27            1.4019     3.1452     0.0056 H       
  28 H28            4.6352     0.0664     1.4376 H       
  29 H29            5.7442     0.4098     3.4063 H       
  30 H30            4.3103    -0.1518     4.3116 H       
  31 H31            6.7234    -1.5131     4.2943 H       
  32 H32            5.1434    -2.3249     4.5274 H       
  33 H33            6.7532    -2.0077     1.9343 H       
  34 H34            6.0128    -3.4958     2.6111 H       
  35 H35            3.7802    -2.7480     2.1058 H       
  36 H36            4.6933    -2.1433     0.6879 H       
  37 H37           -1.0827     3.3748    -3.4913 H       
  38 H38           -2.6155     3.3490    -2.5868 H       
  39 H39           -2.2001     5.5870    -3.5705 H       
  40 H40           -2.1853     5.6581    -1.7920 H       
  41 H41           -0.6525     5.6838    -2.6965 H       
@<TRIPOS>BOND
   1    1    2 1
   2    1    6 1
   3    1    7 1
   4    1   18 1
   5    2    3 1
   6    2   19 1
   7    2   20 1
   8    3    4 1
   9    3   21 1
  10    3   22 1
  11    4    5 1
  12    4   10 1
  13    4   23 1
  14    5    6 1
  15    5   24 1
  16    5   25 1
  17    6   26 1
  18    6   27 1
  19    7    8 2
  20    7    9 1
  21    9   16 1
  22   10   11 1
  23   11   12 1
  24   11   15 1
  25   11   28 1
  26   12   13 1
  27   12   29 1
  28   12   30 1
  29   13   14 1
  30   13   31 1
  31   13   32 1
  32   14   15 1
  33   14   33 1
  34   14   34 1
  35   15   35 1
  36   15   36 1
  37   16   17 1
  38   16   37 1
  39   16   38 1
  40   17   39 1
  41   17   40 1
  42   17   41 1

#	End of record

