#	Name: ASD06710027
#	Creating user name:	WinNT
#	Creation time:	15. 06. 2019 21:08

#	Modifying user name:	WinNT
#	Modification time:	15. 06. 2019 21:08

#	Program:	/corina/corina34_cracker 3.40 0067  02.08.2006

@<TRIPOS>MOLECULE
ASD06710027
 102  103    0    0    0
SMALL
NO_CHARGES


@<TRIPOS>ATOM
   1 C1             4.4123     1.9114    -3.7108 C.ar    
   2 C2             5.5878     1.1745    -3.7030 C.ar    
   3 C3             6.1403     0.7671    -2.4974 C.ar    
   4 C4             5.5191     1.0959    -1.3081 C.ar    
   5 C5             4.3474     1.8299    -1.3186 C.ar    
   6 C6             3.7950     2.2376    -2.5188 C.ar    
   7 C7             4.5657     4.5224    -0.0979 C.ar    
   8 C8             3.4804     3.6794     0.0539 C.ar    
   9 C9             3.6714     2.1863    -0.0198 C.3     
  10 C10            4.3933     5.8913    -0.0308 C.ar    
  11 C11            3.1297     6.4201     0.1892 C.ar    
  12 C12            2.0423     5.5722     0.3417 C.ar    
  13 C13            2.2201     4.2039     0.2737 C.ar    
  14 O14            6.1967     0.8520    -4.8743 O.3     
  15 O15            2.9575     7.7665     0.2561 O.3     
  16 C16            7.4037     0.0916    -4.7902 C.3     
  17 C17            7.9391    -0.1730    -6.1988 C.3     
  18 C18            6.8519    -0.8451    -7.0397 C.3     
  19 O19            8.3199     1.0850    -6.8160 O.3     
  20 C20            1.6288     8.2400     0.4850 C.3     
  21 C21            1.6328     9.7694     0.5286 C.3     
  22 O22            2.0069    10.2898    -0.7743 O.3     
  23 Cl23           7.5274    -1.2897    -8.6512 Cl      
  24 C24            0.2357    10.2728     0.8969 C.3     
  25 O25            0.2671    11.7159     1.0542 O.3     
  26 C26            9.3206     1.0469    -7.7098 C.2     
  27 C27            9.7707     2.3134    -8.3913 C.3     
  28 O28            9.8605    -0.0027    -7.9678 O.2     
  29 C29           10.9161     1.9949    -9.3544 C.3     
  30 C30            3.3147    10.4959    -0.9956 C.2     
  31 C31            3.7784    11.0344    -2.3245 C.3     
  32 C32            5.3019    11.1747    -2.3145 C.3     
  33 O33            4.1202    10.2496    -0.1293 O.2     
  34 C34           -0.8872    12.3187     1.3798 C.2     
  35 C35           -0.9316    13.8142     1.5599 C.3     
  36 O36           -1.8906    11.6622     1.5284 O.2     
  37 C37           -2.3545    14.2419     1.9253 C.3     
  38 N38           11.3549     3.2294   -10.0187 N.3     
  39 C39           11.9572     4.1604    -9.0551 C.3     
  40 C40           12.2845     2.9343   -11.1172 C.3     
  41 N41            5.7538    11.6997    -3.6099 N.3     
  42 C42            5.2776    13.0740    -3.8161 C.3     
  43 C43            7.2163    11.6263    -3.7264 C.3     
  44 N44           -2.3978    15.6997     2.1009 N.3     
  45 C45           -2.1405    16.3909     0.8305 C.3     
  46 C46           -3.6800    16.1223     2.6799 C.3     
  47 C47            2.3091     1.4937     0.0529 C.3     
  48 C48            4.5412     1.7250     1.1513 C.3     
  49 H49            3.9826     2.2335    -4.6478 H       
  50 H50            7.0551     0.1931    -2.4887 H       
  51 H51            5.9488     0.7790    -0.3693 H       
  52 H52            2.8798     2.8109    -2.5244 H       
  53 H53            5.5499     4.1101    -0.2647 H       
  54 H54            5.2414     6.5494    -0.1491 H       
  55 H55            1.0577     5.9814     0.5134 H       
  56 H56            1.3738     3.5433     0.3920 H       
  57 H57            8.1453     0.6493    -4.2183 H       
  58 H58            7.2012    -0.8577    -4.2942 H       
  59 H59            8.8092    -0.8268    -6.1399 H       
  60 H60            6.5032    -1.7441    -6.5314 H       
  61 H61            6.0177    -0.1563    -7.1729 H       
  62 H62            0.9784     7.9013    -0.3214 H       
  63 H63            1.2628     7.8504     1.4349 H       
  64 H64            2.3502    10.1097     1.2754 H       
  65 H65           -0.4659    10.0088     0.1056 H       
  66 H66           -0.0815     9.8122     1.8325 H       
  67 H67            8.9373     2.7428    -8.9473 H       
  68 H68           10.1137     3.0270    -7.6421 H       
  69 H69           11.7495     1.5655    -8.7984 H       
  70 H70           10.5731     1.2813   -10.1035 H       
  71 H71            3.4819    10.3484    -3.1180 H       
  72 H72            3.3248    12.0100    -2.4994 H       
  73 H73            5.5983    11.8608    -1.5210 H       
  74 H74            5.7555    10.1991    -2.1395 H       
  75 H75           -0.2487    14.1045     2.3584 H       
  76 H76           -0.6330    14.3011     0.6315 H       
  77 H77           -3.0374    13.9516     1.1269 H       
  78 H78           -2.6531    13.7550     2.8537 H       
  79 H79           12.8213     3.6895    -8.5865 H       
  80 H80           12.2732     5.0657    -9.5734 H       
  81 H81           11.2239     4.4166    -8.2905 H       
  82 H82           11.7892     2.2992   -11.8517 H       
  83 H83           12.5936     3.8656   -11.5917 H       
  84 H84           13.1605     2.4191   -10.7233 H       
  85 H85            5.6652    13.7154    -3.0246 H       
  86 H86            5.6264    13.4382    -4.7824 H       
  87 H87            4.1879    13.0881    -3.7942 H       
  88 H88            7.5361    10.5879    -3.6393 H       
  89 H89            7.5240    12.0212    -4.6946 H       
  90 H90            7.6742    12.2153    -2.9316 H       
  91 H91           -2.8979    16.1041     0.1010 H       
  92 H92           -2.1784    17.4686     0.9890 H       
  93 H93           -1.1543    16.1128     0.4588 H       
  94 H94           -3.8130    15.6490     3.6527 H       
  95 H95           -3.6853    17.2057     2.7992 H       
  96 H96           -4.4932    15.8258     2.0174 H       
  97 H97            1.6894     1.8223    -0.7814 H       
  98 H98            2.4473     0.4138    -0.0004 H       
  99 H99            1.8201     1.7515     0.9924 H       
 100 H100           4.0522     1.9828     2.0907 H       
 101 H101           4.6794     0.6451     1.0980 H       
 102 H102           5.5118     2.2185     1.0995 H       
@<TRIPOS>BOND
   1    1    2 ar
   2    1    6 ar
   3    1   49 1
   4    2    3 ar
   5    2   14 1
   6    3    4 ar
   7    3   50 1
   8    4    5 ar
   9    4   51 1
  10    5    6 ar
  11    5    9 1
  12    6   52 1
  13    7    8 ar
  14    7   10 ar
  15    7   53 1
  16    8    9 1
  17    8   13 ar
  18    9   47 1
  19    9   48 1
  20   10   11 ar
  21   10   54 1
  22   11   12 ar
  23   11   15 1
  24   12   13 ar
  25   12   55 1
  26   13   56 1
  27   14   16 1
  28   15   20 1
  29   16   17 1
  30   16   57 1
  31   16   58 1
  32   17   18 1
  33   17   19 1
  34   17   59 1
  35   18   23 1
  36   18   60 1
  37   18   61 1
  38   19   26 1
  39   20   21 1
  40   20   62 1
  41   20   63 1
  42   21   24 1
  43   21   22 1
  44   21   64 1
  45   22   30 1
  46   24   25 1
  47   24   65 1
  48   24   66 1
  49   25   34 1
  50   26   27 1
  51   26   28 2
  52   27   29 1
  53   27   67 1
  54   27   68 1
  55   29   38 1
  56   29   69 1
  57   29   70 1
  58   30   31 1
  59   30   33 2
  60   31   32 1
  61   31   71 1
  62   31   72 1
  63   32   41 1
  64   32   73 1
  65   32   74 1
  66   34   35 1
  67   34   36 2
  68   35   37 1
  69   35   75 1
  70   35   76 1
  71   37   44 1
  72   37   77 1
  73   37   78 1
  74   38   39 1
  75   38   40 1
  76   39   79 1
  77   39   80 1
  78   39   81 1
  79   40   82 1
  80   40   83 1
  81   40   84 1
  82   41   42 1
  83   41   43 1
  84   42   85 1
  85   42   86 1
  86   42   87 1
  87   43   88 1
  88   43   89 1
  89   43   90 1
  90   44   45 1
  91   44   46 1
  92   45   91 1
  93   45   92 1
  94   45   93 1
  95   46   94 1
  96   46   95 1
  97   46   96 1
  98   47   97 1
  99   47   98 1
 100   47   99 1
 101   48  100 1
 102   48  101 1
 103   48  102 1

#	End of record

