#	Name: ASD03731709
#	Creating user name:	WinNT
#	Creation time:	15. 06. 2019 20:46

#	Modifying user name:	WinNT
#	Modification time:	15. 06. 2019 20:46

#	Program:	/corina/corina34_cracker 3.40 0067  02.08.2006

@<TRIPOS>MOLECULE
ASD03731709
  42   43    0    0    0
SMALL
NO_CHARGES


@<TRIPOS>ATOM
   1 C1             0.1069     1.3988     0.8834 C.2     
   2 C2             0.0941    -0.0579     0.6453 C.ar    
   3 C3             0.2781    -0.9434     1.7105 C.ar    
   4 C4             0.2650    -2.3016     1.4844 C.ar    
   5 C5             0.0694    -2.7922     0.1984 C.ar    
   6 C6            -0.1140    -1.9144    -0.8639 C.ar    
   7 C7            -0.1080    -0.5550    -0.6450 C.ar    
   8 O8             0.2778     1.8295     2.0075 O.2     
   9 N9            -0.0652     2.2514    -0.1461 N.am    
  10 S10           -0.0508     3.8857     0.1211 S.o2    
  11 O11           -0.2832     4.4524    -1.1611 O.2     
  12 O12           -0.9745     4.0751     1.1842 O.2     
  13 C13            1.6397     4.2387     0.6762 C.3     
  14 O14            0.0581    -4.1313    -0.0206 O.3     
  15 C15           -1.1273    -4.7861     0.0918 C.ar    
  16 C16           -1.1697    -6.1695    -0.0097 C.ar    
  17 C17           -2.3758    -6.8325     0.1048 C.ar    
  18 C18           -3.5408    -6.1190     0.3201 C.ar    
  19 C19           -3.5014    -4.7408     0.4212 C.ar    
  20 C20           -2.2966    -4.0732     0.3140 C.ar    
  21 C21            0.0992    -6.9476    -0.2453 C.3     
  22 C22            0.3226    -7.9219     0.9130 C.3     
  23 C23           -0.0181    -7.7303    -1.5547 C.3     
  24 H24            0.4308    -0.5631     2.7097 H       
  25 H25            0.4072    -2.9867     2.3071 H       
  26 H26           -0.2653    -2.2993    -1.8616 H       
  27 H27           -0.2546     0.1263    -1.4701 H       
  28 H28           -0.1976     1.9078    -1.0435 H       
  29 H29            2.3458     3.9472    -0.1014 H       
  30 H30            1.7408     5.3051     0.8775 H       
  31 H31            1.8484     3.6758     1.5860 H       
  32 H32           -2.4093    -7.9091     0.0259 H       
  33 H33           -4.4830    -6.6394     0.4091 H       
  34 H34           -4.4127    -4.1859     0.5890 H       
  35 H35           -2.2657    -2.9969     0.3981 H       
  36 H36            0.9415    -6.2586    -0.3081 H       
  37 H37            0.4062    -7.3642     1.8458 H       
  38 H38           -0.5198    -8.6108     0.9758 H       
  39 H39            1.2403    -8.4846     0.7426 H       
  40 H40           -0.1772    -7.0362    -2.3799 H       
  41 H41            0.8997    -8.2931    -1.7251 H       
  42 H42           -0.8604    -8.4193    -1.4919 H       
@<TRIPOS>BOND
   1    1    2 1
   2    1    8 2
   3    1    9 am
   4    2    3 ar
   5    2    7 ar
   6    3    4 ar
   7    3   24 1
   8    4    5 ar
   9    4   25 1
  10    5    6 ar
  11    5   14 1
  12    6    7 ar
  13    6   26 1
  14    7   27 1
  15    9   10 am
  16    9   28 1
  17   10   11 2
  18   10   12 2
  19   10   13 1
  20   13   29 1
  21   13   30 1
  22   13   31 1
  23   14   15 1
  24   15   16 ar
  25   15   20 ar
  26   16   17 ar
  27   16   21 1
  28   17   18 ar
  29   17   32 1
  30   18   19 ar
  31   18   33 1
  32   19   20 ar
  33   19   34 1
  34   20   35 1
  35   21   22 1
  36   21   23 1
  37   21   36 1
  38   22   37 1
  39   22   38 1
  40   22   39 1
  41   23   40 1
  42   23   41 1
  43   23   42 1

#	End of record

