#	Name: ASD01410999
#	Creating user name:	WinNT
#	Creation time:	15. 06. 2019 19:19

#	Modifying user name:	WinNT
#	Modification time:	15. 06. 2019 19:19

#	Program:	/corina/corina34_cracker 3.40 0067  02.08.2006

@<TRIPOS>MOLECULE
ASD01410999
  92   99    0    0    0
SMALL
NO_CHARGES


@<TRIPOS>ATOM
   1 C1            -0.0476     1.5356     0.0739 C.3     
   2 C2             0.1986     0.0302    -0.0448 C.3     
   3 C3             0.9237    -0.4683     1.2068 C.3     
   4 C4             2.2632     0.2583     1.3436 C.3     
   5 C5             2.0170     1.7637     1.4623 C.3     
   6 C6             1.2919     2.2622     0.2106 C.3     
   7 C7            -0.7623     2.0268    -1.1598 C.2     
   8 C8            -1.9383     2.7264    -1.2815 C.2     
   9 N9            -2.3063     2.6999    -2.5981 N.pl3   
  10 C10           -1.2275     2.2657    -3.3506 C.ar    
  11 C11           -0.2299     1.8433    -2.4468 C.ar    
  12 C12            1.0142     1.3694    -2.8929 C.ar    
  13 C13            1.2011     1.3120    -4.2476 C.ar    
  14 C14            0.2089     1.7020    -5.1528 C.ar    
  15 C15           -1.0351     2.1861    -4.7215 C.ar    
  16 C16            0.4806     1.6077    -6.6002 C.2     
  17 O17           -0.3705     1.9424    -7.4017 O.2     
  18 N18            1.6720     1.1505    -7.0339 N.am    
  19 S19            1.9769     1.0447    -8.6582 S.o2    
  20 N20            1.9724     2.5877    -9.2593 N.am    
  21 O21            3.3094     0.5680    -8.7861 O.2     
  22 O22            0.8572     0.3863    -9.2345 O.2     
  23 C23            3.2152     3.3625    -9.2976 C.3     
  24 C24            0.7257     3.1780    -9.7528 C.3     
  25 C25           -2.5716     3.4063    -0.1275 C.ar    
  26 C26           -3.5774     2.9735    -3.2664 C.3     
  27 C27           -4.7829     2.8561    -2.3420 C.3     
  28 C28           -1.7226     3.8060     0.9187 C.ar    
  29 C29           -2.1927     4.3484     2.0898 C.ar    
  30 C30           -3.5566     4.5573     2.2379 C.ar    
  31 C31           -4.3956     4.2533     1.1904 C.ar    
  32 C32           -3.9251     3.7250    -0.0159 C.ar    
  33 O33           -4.0536     5.0557     3.3987 O.3     
  34 C34           -3.1136     5.3461     4.4351 C.3     
  35 C35           -4.9229     3.6337    -1.0655 C.3     
  36 C36           -5.4984     4.2427    -2.2437 C.3     
  37 C37           -5.6322     1.6293    -2.5270 C.2     
  38 O38           -5.6989     0.7993    -1.6452 O.2     
  39 N39           -6.3193     1.4520    -3.6728 N.am    
  40 C40           -7.1250     0.2784    -4.0938 C.3     
  41 C41           -6.4602     2.3852    -4.8185 C.3     
  42 C42           -5.6504     1.7918    -5.9831 C.3     
  43 C43           -6.3477    -0.4178    -5.2232 C.3     
  44 N44           -6.2450     0.5050    -6.3711 N.3     
  45 C45           -8.3979     0.9006    -4.7148 C.3     
  46 C46           -7.9581     2.2944    -5.1944 C.3     
  47 C47           -5.4983    -0.1076    -7.4780 C.3     
  48 H48           -0.6607     1.7353     0.9527 H       
  49 H49           -0.7557    -0.4875    -0.1422 H       
  50 H50            0.8116    -0.1696    -0.9237 H       
  51 H51            0.3106    -0.2686     2.0857 H       
  52 H52            1.0991    -1.5407     1.1223 H       
  53 H53            2.7798    -0.0968     2.2353 H       
  54 H54            2.8763     0.0586     0.4647 H       
  55 H55            1.4039     1.9634     2.3411 H       
  56 H56            2.9713     2.2814     1.5597 H       
  57 H57            1.9050     2.0624    -0.6682 H       
  58 H58            1.1165     3.3346     0.2952 H       
  59 H59            1.7880     1.0679    -2.2026 H       
  60 H60            2.1487     0.9596    -4.6273 H       
  61 H61           -1.7976     2.4827    -5.4255 H       
  62 H62            2.3509     0.8835    -6.3946 H       
  63 H63            3.7223     3.1891   -10.2468 H       
  64 H64            2.9853     4.4232    -9.1969 H       
  65 H65            3.8626     3.0516    -8.4777 H       
  66 H66           -0.0852     2.4578    -9.6443 H       
  67 H67            0.4952     4.0742    -9.1769 H       
  68 H68            0.8397     3.4412   -10.8044 H       
  69 H69           -3.5533     3.9751    -3.6806 H       
  70 H70           -3.7094     2.2565    -4.0730 H       
  71 H71           -0.6507     3.7724     0.7987 H       
  72 H72           -1.5073     4.6131     2.8812 H       
  73 H73           -5.4592     4.4147     1.3072 H       
  74 H74           -2.5837     4.4344     4.7109 H       
  75 H75           -2.3989     6.0885     4.0798 H       
  76 H76           -3.6412     5.7371     5.3051 H       
  77 H77           -5.8223     3.3483    -0.5330 H       
  78 H78           -4.9809     5.1107    -2.6582 H       
  79 H79           -6.5850     4.2719    -2.3023 H       
  80 H80           -7.3424    -0.3954    -3.2650 H       
  81 H81           -6.1454     3.3988    -4.5701 H       
  82 H82           -5.6758     2.4760    -6.8312 H       
  83 H83           -4.6184     1.6367    -5.6683 H       
  84 H84           -5.3481    -0.6753    -4.8732 H       
  85 H85           -6.8748    -1.3230    -5.5246 H       
  86 H86           -8.7430     0.2997    -5.5561 H       
  87 H87           -9.1825     0.9901    -3.9634 H       
  88 H88           -8.5269     3.0679    -4.6785 H       
  89 H89           -8.0853     2.3836    -6.2732 H       
  90 H90           -4.4667    -0.2780    -7.1700 H       
  91 H91           -5.9596    -1.0584    -7.7451 H       
  92 H92           -5.5147     0.5591    -8.3402 H       
@<TRIPOS>BOND
   1    1    2 1
   2    1    6 1
   3    1    7 1
   4    1   48 1
   5    2    3 1
   6    2   49 1
   7    2   50 1
   8    3    4 1
   9    3   51 1
  10    3   52 1
  11    4    5 1
  12    4   53 1
  13    4   54 1
  14    5    6 1
  15    5   55 1
  16    5   56 1
  17    6   57 1
  18    6   58 1
  19    7    8 2
  20    7   11 1
  21    8    9 1
  22    8   25 1
  23    9   10 1
  24    9   26 1
  25   10   15 ar
  26   10   11 ar
  27   11   12 ar
  28   12   13 ar
  29   12   59 1
  30   13   14 ar
  31   13   60 1
  32   14   15 ar
  33   14   16 1
  34   15   61 1
  35   16   17 2
  36   16   18 am
  37   18   19 am
  38   18   62 1
  39   19   20 am
  40   19   21 2
  41   19   22 2
  42   20   23 1
  43   20   24 1
  44   23   63 1
  45   23   64 1
  46   23   65 1
  47   24   66 1
  48   24   67 1
  49   24   68 1
  50   25   28 ar
  51   25   32 ar
  52   26   27 1
  53   26   69 1
  54   26   70 1
  55   27   35 1
  56   27   36 1
  57   27   37 1
  58   28   29 ar
  59   28   71 1
  60   29   30 ar
  61   29   72 1
  62   30   31 ar
  63   30   33 1
  64   31   32 ar
  65   31   73 1
  66   32   35 1
  67   33   34 1
  68   34   74 1
  69   34   75 1
  70   34   76 1
  71   35   36 1
  72   35   77 1
  73   36   78 1
  74   36   79 1
  75   37   38 2
  76   37   39 am
  77   39   40 1
  78   39   41 1
  79   40   43 1
  80   40   45 1
  81   40   80 1
  82   41   42 1
  83   41   46 1
  84   41   81 1
  85   42   44 1
  86   42   82 1
  87   42   83 1
  88   43   44 1
  89   43   84 1
  90   43   85 1
  91   44   47 1
  92   45   46 1
  93   45   86 1
  94   45   87 1
  95   46   88 1
  96   46   89 1
  97   47   90 1
  98   47   91 1
  99   47   92 1

#	End of record

