#	Name: ASD01028502
#	Creating user name:	WinNT
#	Creation time:	15. 06. 2019 18:57

#	Modifying user name:	WinNT
#	Modification time:	15. 06. 2019 18:57

#	Program:	/corina/corina34_cracker 3.40 0067  02.08.2006

@<TRIPOS>MOLECULE
ASD01028502
  41   45    0    0    0
SMALL
NO_CHARGES


@<TRIPOS>ATOM
   1 C1            -0.0171     1.4129     0.0098 C.ar    
   2 C2             0.0021    -0.0041     0.0020 C.ar    
   3 C3             1.1937     2.1233     0.0021 C.ar    
   4 C4             2.3731     1.4427    -0.0129 C.ar    
   5 C5             2.3944     0.0497    -0.0206 C.ar    
   6 C6             1.2395    -0.6705    -0.0139 C.ar    
   7 C7             4.1192     2.4536     1.3961 C.2     
   8 N8             4.9143     1.6393     2.1436 N.pl3   
   9 C9             5.0544     2.2636     3.3592 C.2     
  10 N10            4.3614     3.3884     3.2937 N.2     
  11 N11            3.8189     3.4924     2.1317 N.2     
  12 C12            5.5206     0.4443     1.9042 C.2     
  13 C13            6.2771    -0.1507     2.8704 C.2     
  14 C14            6.4362     0.4743     4.1322 C.2     
  15 C15            5.8324     1.6658     4.3715 C.2     
  16 N16           -1.1484    -0.6849     0.0103 N.ar    
  17 C17           -2.3050    -0.0683     0.0256 C.ar    
  18 C18           -2.3946     1.3222     0.0339 C.ar    
  19 C19           -1.2574     2.0785     0.0311 C.ar    
  20 C20            6.9311    -1.4485     2.6014 C.2     
  21 C21            3.6723     2.2063    -0.0217 C.3     
  22 C22            8.2763    -1.6949     2.5418 C.2     
  23 C23            8.3555    -3.0737     2.2603 C.2     
  24 N24            7.1297    -3.5083     2.1803 N.2     
  25 O25            6.3246    -2.6268     2.3715 O.3     
  26 C26            9.6124    -3.8864     2.0852 C.3     
  27 H27            1.1899     3.2032     0.0076 H       
  28 H28            3.3427    -0.4671    -0.0325 H       
  29 H29            1.2738    -1.7499    -0.0200 H       
  30 H30            5.4015    -0.0355     0.9440 H       
  31 H31            7.0348     0.0051     4.8990 H       
  32 H32            5.9463     2.1514     5.3294 H       
  33 H33           -3.2127    -0.6535     0.0315 H       
  34 H34           -3.3624     1.8014     0.0461 H       
  35 H35           -1.3083     3.1573     0.0374 H       
  36 H36            4.4314     1.6258    -0.5459 H       
  37 H37            3.5295     3.1603    -0.5293 H       
  38 H38            9.0879    -0.9956     2.6786 H       
  39 H39            9.9231    -4.2875     3.0499 H       
  40 H40            9.4207    -4.7079     1.3949 H       
  41 H41           10.4025    -3.2517     1.6841 H       
@<TRIPOS>BOND
   1    1    2 ar
   2    1    3 ar
   3    1   19 ar
   4    2   16 ar
   5    2    6 ar
   6    3    4 ar
   7    3   27 1
   8    4    5 ar
   9    4   21 1
  10    5    6 ar
  11    5   28 1
  12    6   29 1
  13    7    8 1
  14    7   21 1
  15    7   11 2
  16    8    9 1
  17    8   12 1
  18    9   10 2
  19    9   15 1
  20   10   11 1
  21   12   13 2
  22   12   30 1
  23   13   14 1
  24   13   20 1
  25   14   15 2
  26   14   31 1
  27   15   32 1
  28   16   17 ar
  29   17   18 ar
  30   17   33 1
  31   18   19 ar
  32   18   34 1
  33   19   35 1
  34   20   22 2
  35   20   25 1
  36   21   36 1
  37   21   37 1
  38   22   23 1
  39   22   38 1
  40   23   24 2
  41   23   26 1
  42   24   25 1
  43   26   39 1
  44   26   40 1
  45   26   41 1

#	End of record

