#	Name: ASD00170083
#	Creating user name:	WinNT
#	Creation time:	15. 06. 2019 18:31

#	Modifying user name:	WinNT
#	Modification time:	15. 06. 2019 18:31

#	Program:	/corina/corina34_cracker 3.40 0067  02.08.2006

@<TRIPOS>MOLECULE
ASD00170083
  53   56    0    0    0
SMALL
NO_CHARGES


@<TRIPOS>ATOM
   1 C1             0.0502     1.2487    -0.0628 C.2     
   2 C2            -0.0709    -0.1042     0.0388 C.2     
   3 C3            -1.4566    -0.5305     0.1153 C.2     
   4 C4            -2.3417     0.5172     0.0690 C.2     
   5 S5            -1.5306     2.0092    -0.0578 S.3     
   6 N6            -3.7128     0.3797     0.1234 N.pl3   
   7 C7             1.3319     1.9736    -0.1574 C.ar    
   8 C8             1.5110     2.9585    -1.1320 C.ar    
   9 C9             2.7116     3.6323    -1.2143 C.ar    
  10 C10            3.7374     3.3350    -0.3344 C.ar    
  11 C11            3.5672     2.3607     0.6335 C.ar    
  12 C12            2.3702     1.6824     0.7309 C.ar    
  13 C13           -1.8661    -1.9291     0.2292 C.2     
  14 O14           -2.0936    -2.6581    -0.8831 O.3     
  15 O15           -2.0017    -2.4358     1.3270 O.2     
  16 C16           -2.4909    -4.0181    -0.6973 C.3     
  17 C17           -2.6982    -4.6688    -2.0407 C.ar    
  18 C18           -1.6448    -5.3047    -2.6707 C.ar    
  19 C19           -1.8350    -5.9015    -3.9029 C.ar    
  20 C20           -3.0787    -5.8629    -4.5050 C.ar    
  21 C21           -4.1324    -5.2279    -3.8746 C.ar    
  22 C22           -3.9433    -4.6348    -2.6404 C.ar    
  23 C23            1.0799    -1.0343     0.0678 C.ar    
  24 C24            1.3632    -1.7625     1.2239 C.ar    
  25 C25            2.4371    -2.6283     1.2444 C.ar    
  26 C26            3.2324    -2.7754     0.1219 C.ar    
  27 C27            2.9571    -2.0560    -1.0275 C.ar    
  28 C28            1.8827    -1.1912    -1.0627 C.ar    
  29 C29            4.4039    -3.7229     0.1513 C.3     
  30 C30           -3.2858    -6.5127    -5.8488 C.3     
  31 F31           -3.6739    -7.8446    -5.6680 F       
  32 F32           -4.2841    -5.8272    -6.5494 F       
  33 F33           -2.0918    -6.4696    -6.5767 F       
  34 H34           -4.1092    -0.5024     0.1996 H       
  35 H35           -4.2809     1.1650     0.0856 H       
  36 H36            0.7113     3.1913    -1.8196 H       
  37 H37            2.8515     4.3937    -1.9674 H       
  38 H38            4.6755     3.8656    -0.4036 H       
  39 H39            4.3721     2.1338     1.3169 H       
  40 H40            2.2386     0.9226     1.4870 H       
  41 H41           -1.7136    -4.5523    -0.1510 H       
  42 H42           -3.4213    -4.0507    -0.1304 H       
  43 H43           -0.6731    -5.3348    -2.2003 H       
  44 H44           -1.0118    -6.3976    -4.3954 H       
  45 H45           -5.1040    -5.1974    -4.3452 H       
  46 H46           -4.7665    -4.1386    -2.1478 H       
  47 H47            0.7433    -1.6482     2.1010 H       
  48 H48            2.6577    -3.1922     2.1387 H       
  49 H49            3.5821    -2.1747    -1.9002 H       
  50 H50            1.6687    -0.6302    -1.9604 H       
  51 H51            4.0794    -4.7120    -0.1720 H       
  52 H52            5.1825    -3.3589    -0.5191 H       
  53 H53            4.7971    -3.7832     1.1661 H       
@<TRIPOS>BOND
   1    1    2 2
   2    1    7 1
   3    1    5 1
   4    2    3 1
   5    2   23 1
   6    3    4 2
   7    3   13 1
   8    4    5 1
   9    4    6 1
  10    6   34 1
  11    6   35 1
  12    7    8 ar
  13    7   12 ar
  14    8    9 ar
  15    8   36 1
  16    9   10 ar
  17    9   37 1
  18   10   11 ar
  19   10   38 1
  20   11   12 ar
  21   11   39 1
  22   12   40 1
  23   13   14 1
  24   13   15 2
  25   14   16 1
  26   16   17 1
  27   16   41 1
  28   16   42 1
  29   17   18 ar
  30   17   22 ar
  31   18   19 ar
  32   18   43 1
  33   19   20 ar
  34   19   44 1
  35   20   21 ar
  36   20   30 1
  37   21   22 ar
  38   21   45 1
  39   22   46 1
  40   23   24 ar
  41   23   28 ar
  42   24   25 ar
  43   24   47 1
  44   25   26 ar
  45   25   48 1
  46   26   27 ar
  47   26   29 1
  48   27   28 ar
  49   27   49 1
  50   28   50 1
  51   29   51 1
  52   29   52 1
  53   29   53 1
  54   30   31 1
  55   30   32 1
  56   30   33 1

#	End of record

