#	Name: ASD01820008
#	Creating user name:	WinNT
#	Creation time:	15. 06. 2019 19:36

#	Modifying user name:	WinNT
#	Modification time:	15. 06. 2019 19:36

#	Program:	/corina/corina34_cracker 3.40 0067  02.08.2006

@<TRIPOS>MOLECULE
ASD01820008
  83   84    0    0    0
SMALL
NO_CHARGES


@<TRIPOS>ATOM
   1 C1            -0.0167     1.3815     0.0096 C.ar    
   2 C2             0.0021    -0.0041     0.0020 C.ar    
   3 C3             1.2150    -0.6748    -0.0132 C.ar    
   4 C4             2.4048     0.0289    -0.0207 C.ar    
   5 C5             2.4014     1.4150    -0.0128 C.ar    
   6 C6            -1.0886     2.3992     0.0194 C.2     
   7 C7             1.1964     2.0990     0.0019 C.ar    
   8 C8             0.8208     3.5286     0.0132 C.2     
   9 N9            -0.5214     3.6191     0.0238 N.am    
  10 O10           -2.2817     2.1722     0.0226 O.2     
  11 O11            1.5944     4.4648     0.0113 O.2     
  12 C12           -1.2672     4.8800     0.0330 C.3     
  13 C13           -1.5218     5.3115     1.4786 C.3     
  14 N14           -2.2696     6.5758     1.4877 N.4     
  15 C15           -2.5142     6.9901     2.8757 C.3     
  16 C16           -3.2930     8.3070     2.8852 C.3     
  17 C17           -3.5477     8.7385     4.3309 C.3     
  18 C18           -4.3266    10.0553     4.3404 C.3     
  19 C19           -4.5813    10.4868     5.7860 C.3     
  20 C20           -5.3601    11.8037     5.7955 C.3     
  21 N21           -5.6046    12.2180     7.1835 N.4     
  22 C22           -6.3524    13.4823     7.1927 C.3     
  23 C23           -6.6071    13.9138     8.6383 C.3     
  24 C24           -7.3860    15.2307     8.6478 C.3     
  25 N25           -7.6298    15.6438    10.0320 N.am    
  26 C26           -8.5982    15.8976    12.0960 C.ar    
  27 C27           -8.7085    15.2891    10.7534 C.2     
  28 C28           -6.8018    16.4231    10.7508 C.2     
  29 C29           -7.3865    16.6183    12.0943 C.ar    
  30 C30           -8.9860    16.5821    14.3602 C.ar    
  31 C31           -9.3892    15.8825    13.2330 C.ar    
  32 C32           -6.9949    17.3101    13.2288 C.ar    
  33 C33           -7.7984    17.2885    14.3586 C.ar    
  34 O34           -5.7496    16.8880    10.3613 O.2     
  35 O35           -9.6206    14.5869    10.3661 O.2     
  36 C36           -6.3854    11.1823     7.8733 C.3     
  37 C37           -4.3206    12.4035     7.8726 C.3     
  38 C38           -1.4889     7.6115     0.7979 C.3     
  39 C39           -3.5537     6.3903     0.7986 C.3     
  40 H40           -0.9244    -0.5590     0.0082 H       
  41 H41            1.2307    -1.7546    -0.0188 H       
  42 H42            3.3435    -0.5050    -0.0326 H       
  43 H43            3.3340     1.9596    -0.0181 H       
  44 H44           -0.6878     5.6485    -0.4789 H       
  45 H45           -2.2199     4.7423    -0.4783 H       
  46 H46           -2.1012     4.5430     1.9904 H       
  47 H47           -0.5691     5.4491     1.9899 H       
  48 H48           -3.0935     6.2217     3.3876 H       
  49 H49           -1.5614     7.1278     3.3870 H       
  50 H50           -2.7137     9.0755     2.3734 H       
  51 H51           -4.2458     8.1693     2.3739 H       
  52 H52           -4.1270     7.9700     4.8427 H       
  53 H53           -2.5950     8.8761     4.8422 H       
  54 H54           -3.7473    10.8238     3.8286 H       
  55 H55           -5.2793     9.9177     3.8291 H       
  56 H56           -5.1606     9.7184     6.2979 H       
  57 H57           -3.6285    10.6245     6.2973 H       
  58 H58           -4.7808    12.5722     5.2837 H       
  59 H59           -6.3129    11.6660     5.2842 H       
  60 H60           -5.7731    14.2508     6.6808 H       
  61 H61           -7.3052    13.3447     6.6814 H       
  62 H62           -7.1864    13.1454     9.1501 H       
  63 H63           -5.6544    14.0515     9.1496 H       
  64 H64           -6.8067    15.9992     8.1360 H       
  65 H65           -8.3387    15.0930     8.1365 H       
  66 H66           -9.6021    16.5710    15.2472 H       
  67 H67          -10.3185    15.3321    13.2400 H       
  68 H68           -6.0675    17.8636    13.2334 H       
  69 H69           -7.4941    17.8279    15.2434 H       
  70 H70           -5.8305    10.2441     7.8666 H       
  71 H71           -6.5668    11.4897     8.9032 H       
  72 H72           -7.3381    11.0446     7.3620 H       
  73 H73           -3.7413    13.1720     7.3608 H       
  74 H74           -4.5021    12.7109     8.9025 H       
  75 H75           -3.7657    11.4653     7.8658 H       
  76 H76           -1.3075     7.3041    -0.2320 H       
  77 H77           -2.0438     8.5497     0.8047 H       
  78 H78           -0.5362     7.7492     1.3092 H       
  79 H79           -4.1330     5.6219     1.3105 H       
  80 H80           -4.1085     7.3285     0.8054 H       
  81 H81           -3.3722     6.0829    -0.2313 H       
  82 Br82           8.3435    22.8636    20.2472 Br      
  83 Br83          13.3435    27.8636    25.2472 Br      
@<TRIPOS>BOND
   1    1    2 ar
   2    1    7 ar
   3    1    6 1
   4    2    3 ar
   5    2   40 1
   6    3    4 ar
   7    3   41 1
   8    4    5 ar
   9    4   42 1
  10    5    7 ar
  11    5   43 1
  12    6    9 am
  13    6   10 2
  14    7    8 1
  15    8    9 am
  16    8   11 2
  17    9   12 1
  18   12   13 1
  19   12   44 1
  20   12   45 1
  21   13   14 1
  22   13   46 1
  23   13   47 1
  24   14   15 1
  25   14   38 1
  26   14   39 1
  27   15   16 1
  28   15   48 1
  29   15   49 1
  30   16   17 1
  31   16   50 1
  32   16   51 1
  33   17   18 1
  34   17   52 1
  35   17   53 1
  36   18   19 1
  37   18   54 1
  38   18   55 1
  39   19   20 1
  40   19   56 1
  41   19   57 1
  42   20   21 1
  43   20   58 1
  44   20   59 1
  45   21   22 1
  46   21   36 1
  47   21   37 1
  48   22   23 1
  49   22   60 1
  50   22   61 1
  51   23   24 1
  52   23   62 1
  53   23   63 1
  54   24   25 1
  55   24   64 1
  56   24   65 1
  57   25   28 am
  58   25   27 am
  59   26   27 1
  60   26   29 ar
  61   26   31 ar
  62   27   35 2
  63   28   29 1
  64   28   34 2
  65   29   32 ar
  66   30   31 ar
  67   30   33 ar
  68   30   66 1
  69   31   67 1
  70   32   33 ar
  71   32   68 1
  72   33   69 1
  73   36   70 1
  74   36   71 1
  75   36   72 1
  76   37   73 1
  77   37   74 1
  78   37   75 1
  79   38   76 1
  80   38   77 1
  81   38   78 1
  82   39   79 1
  83   39   80 1
  84   39   81 1

#	End of record

