#	Name: ASD02560345
#	Creating user name:	WinNT
#	Creation time:	15. 06. 2019 20:25

#	Modifying user name:	WinNT
#	Modification time:	15. 06. 2019 20:25

#	Program:	/corina/corina34_cracker 3.40 0067  02.08.2006

@<TRIPOS>MOLECULE
ASD02560345
  46   50    0    0    0
SMALL
NO_CHARGES


@<TRIPOS>ATOM
   1 C1            -1.6094     1.9006     2.6679 C.2     
   2 C2            -1.8466     0.5728     3.0657 C.2     
   3 C3            -2.5223    -0.2699     2.2587 C.2     
   4 N4            -2.9861     0.1529     1.0431 N.pl3   
   5 C5            -2.7692     1.4460     0.6273 C.2     
   6 C6            -2.0687     2.3378     1.4651 C.2     
   7 C7            -3.6852    -0.4755     0.0481 C.2     
   8 C8            -3.8775     0.4349    -0.9402 C.2     
   9 N9            -3.3157     1.5905    -0.5699 N.2     
  10 C10           -4.6020     0.1849    -2.2378 C.3     
  11 N11           -4.1199    -1.8060     0.0494 N.pl3   
  12 C12           -5.3626    -2.1335     0.5933 C.ar    
  13 C13           -5.7395    -3.4562     0.6865 C.ar    
  14 C14           -6.2119    -1.1155     1.0441 C.ar    
  15 C15           -7.4274    -1.4057     1.5785 C.ar    
  16 C16           -7.8457    -2.7438     1.6837 C.ar    
  17 C17           -6.9902    -3.7815     1.2346 C.ar    
  18 C18           -5.8972     0.9611    -2.4846 C.3     
  19 C19           -4.6295     1.3214    -3.2618 C.3     
  20 C20           -9.0971    -3.0728     2.2318 C.ar    
  21 C21           -9.4725    -4.3782     2.3196 C.ar    
  22 C22           -8.6338    -5.3981     1.8736 C.ar    
  23 C23           -7.4127    -5.1183     1.3419 C.ar    
  24 C24           -2.7683    -1.6898     2.6994 C.3     
  25 C25           -0.8540     2.8378     3.5745 C.3     
  26 H26           -1.4852     0.2261     4.0225 H       
  27 H27           -1.8918     3.3559     1.1512 H       
  28 H28           -4.5460    -0.8349    -2.6186 H       
  29 H29           -3.5573    -2.5004    -0.3276 H       
  30 H30           -5.0777    -4.2363     0.3402 H       
  31 H31           -5.8966    -0.0854     0.9666 H       
  32 H32           -8.0711    -0.6094     1.9221 H       
  33 H33           -6.6932     0.4521    -3.0281 H       
  34 H34           -6.2252     1.6525    -1.7085 H       
  35 H35           -4.1235     2.2498    -2.9970 H       
  36 H36           -4.5914     1.0494    -4.3166 H       
  37 H37           -9.7578    -2.2936     2.5820 H       
  38 H38          -10.4348    -4.6275     2.7418 H       
  39 H39           -8.9560    -6.4257     1.9549 H       
  40 H40           -6.7734    -5.9188     0.9999 H       
  41 H41           -2.2761    -1.8637     3.6563 H       
  42 H42           -3.8401    -1.8564     2.8066 H       
  43 H43           -2.3666    -2.3763     1.9542 H       
  44 H44            0.2119     2.7748     3.3555 H       
  45 H45           -1.1989     3.8587     3.4105 H       
  46 H46           -1.0285     2.5578     4.6134 H       
@<TRIPOS>BOND
   1    1    2 1
   2    1   25 1
   3    1    6 2
   4    2    3 2
   5    2   26 1
   6    3    4 1
   7    3   24 1
   8    4    5 1
   9    4    7 1
  10    5    6 1
  11    5    9 2
  12    6   27 1
  13    7    8 2
  14    7   11 1
  15    8    9 1
  16    8   10 1
  17   10   18 1
  18   10   19 1
  19   10   28 1
  20   11   12 1
  21   11   29 1
  22   12   14 ar
  23   12   13 ar
  24   13   17 ar
  25   13   30 1
  26   14   15 ar
  27   14   31 1
  28   15   16 ar
  29   15   32 1
  30   16   17 ar
  31   16   20 ar
  32   17   23 ar
  33   18   19 1
  34   18   33 1
  35   18   34 1
  36   19   35 1
  37   19   36 1
  38   20   21 ar
  39   20   37 1
  40   21   22 ar
  41   21   38 1
  42   22   23 ar
  43   22   39 1
  44   23   40 1
  45   24   41 1
  46   24   42 1
  47   24   43 1
  48   25   44 1
  49   25   45 1
  50   25   46 1

#	End of record

