#	Name: ASD00068003
#	Creating user name:	WinNT
#	Creation time:	15. 06. 2019 18:29

#	Modifying user name:	WinNT
#	Modification time:	15. 06. 2019 18:29

#	Program:	/corina/corina34_cracker 3.40 0067  02.08.2006

@<TRIPOS>MOLECULE
ASD00068003
  38   39    0    0    0
SMALL
NO_CHARGES


@<TRIPOS>ATOM
   1 C1            -0.0187     1.5258     0.0104 C.3     
   2 C2             0.0021    -0.0041     0.0020 C.3     
   3 C3            -1.4333    -0.5336     0.0129 C.3     
   4 C4            -1.4129    -2.0405     0.0046 C.2     
   5 S5             1.6831     2.1537    -0.0024 S.3     
   6 O6            -0.3545    -2.6325    -0.0087 O.2     
   7 N7            -2.5708    -2.7302     0.0119 N.am    
   8 C8            -2.5734    -4.2010     0.0041 C.3     
   9 C9            -3.4743    -4.6922     1.1422 C.3     
  10 N10           -4.7983    -4.0680     1.0187 N.3     
  11 C11           -4.7152    -2.6087     1.1652 C.3     
  12 C12           -3.8651    -2.0321     0.0342 C.3     
  13 C13           -5.6965    -4.6131     1.9389 C.ar    
  14 C14           -7.0079    -4.1574     1.9852 C.ar    
  15 C15           -7.8941    -4.6994     2.8967 C.ar    
  16 C16           -7.4755    -5.6950     3.7626 C.ar    
  17 C17           -6.1709    -6.1500     3.7183 C.ar    
  18 C18           -5.2818    -5.6159     2.8059 C.ar    
  19 Cl19          -9.5333    -4.1307     2.9562 Cl      
  20 H20           -0.5459     1.8868    -0.8726 H       
  21 H21           -0.5289     1.8773     0.9072 H       
  22 H22            0.5123    -0.3556    -0.8948 H       
  23 H23            0.5293    -0.3651     0.8851 H       
  24 H24           -1.9435    -0.1821     0.9097 H       
  25 H25           -1.9605    -0.1726    -0.8702 H       
  26 H26            1.5135     3.4879     0.0063 H       
  27 H27           -2.9590    -4.5613    -0.9496 H       
  28 H28           -1.5589    -4.5698     0.1549 H       
  29 H29           -3.5762    -5.7758     1.0836 H       
  30 H30           -3.0315    -4.4194     2.1001 H       
  31 H31           -5.7170    -2.1812     1.1233 H       
  32 H32           -4.2551    -2.3649     2.1228 H       
  33 H33           -3.7042    -0.9676     0.2049 H       
  34 H34           -4.3773    -2.1799    -0.9166 H       
  35 H35           -7.3345    -3.3804     1.3099 H       
  36 H36           -8.1696    -6.1169     4.4744 H       
  37 H37           -5.8473    -6.9266     4.3954 H       
  38 H38           -4.2640    -5.9752     2.7692 H       
@<TRIPOS>BOND
   1    1    2 1
   2    1    5 1
   3    1   20 1
   4    1   21 1
   5    2    3 1
   6    2   22 1
   7    2   23 1
   8    3    4 1
   9    3   24 1
  10    3   25 1
  11    4    6 2
  12    4    7 am
  13    5   26 1
  14    7    8 1
  15    7   12 1
  16    8    9 1
  17    8   27 1
  18    8   28 1
  19    9   10 1
  20    9   29 1
  21    9   30 1
  22   10   11 1
  23   10   13 1
  24   11   12 1
  25   11   31 1
  26   11   32 1
  27   12   33 1
  28   12   34 1
  29   13   14 ar
  30   13   18 ar
  31   14   15 ar
  32   14   35 1
  33   15   16 ar
  34   15   19 1
  35   16   17 ar
  36   16   36 1
  37   17   18 ar
  38   17   37 1
  39   18   38 1

#	End of record

