#	Name: ASD02500245
#	Creating user name:	WinNT
#	Creation time:	15. 06. 2019 20:22

#	Modifying user name:	WinNT
#	Modification time:	15. 06. 2019 20:22

#	Program:	/corina/corina34_cracker 3.40 0067  02.08.2006

@<TRIPOS>MOLECULE
ASD02500245
  63   67    0    0    0
SMALL
NO_CHARGES


@<TRIPOS>ATOM
   1 N1            -3.4481     4.9716     0.6519 N.ar    
   2 C2            -4.6783     5.3797     0.8477 C.ar    
   3 C3            -5.4501     4.9013     1.9045 C.ar    
   4 C4            -4.9274     3.9821     2.7689 C.ar    
   5 C5            -3.6061     3.5458     2.5552 C.ar    
   6 C6            -3.0014     2.6035     3.4022 C.ar    
   7 C7            -1.7209     2.2071     3.1622 C.ar    
   8 C8            -1.0020     2.7247     2.0870 C.ar    
   9 C9            -1.5572     3.6396     1.2461 C.ar    
  10 C10           -2.8768     4.0737     1.4609 C.ar    
  11 S11           -0.6251     4.2784    -0.1058 S.o2    
  12 O12           -0.6996     5.6943    -0.0112 O.2     
  13 O13            0.6031     3.5639    -0.1196 O.2     
  14 N14           -1.4251     3.8598    -1.4940 N.am    
  15 C15           -1.6644     2.5204    -1.7818 C.ar    
  16 C16           -2.8888     2.1346    -2.3140 C.ar    
  17 C17           -3.1267     0.8022    -2.6007 C.ar    
  18 C18           -2.1269    -0.1515    -2.3510 C.ar    
  19 C19           -0.9000     0.2529    -1.8152 C.ar    
  20 C20           -0.6736     1.5709    -1.5408 C.ar    
  21 O21           -4.3201     0.4190    -3.1199 O.3     
  22 C22           -5.2885     1.4451    -3.3463 C.3     
  23 C23           -2.3694    -1.5721    -2.6519 C.2     
  24 O24           -3.3363    -2.1377    -2.1779 O.2     
  25 N25           -1.5200    -2.2460    -3.4524 N.am    
  26 C26           -1.7852    -3.6452    -3.8154 C.3     
  27 C27           -1.7919    -3.7620    -5.3446 C.3     
  28 N28           -0.5841    -3.1105    -5.8706 N.am    
  29 C29           -0.3189    -1.7113    -5.5077 C.3     
  30 C30           -0.3151    -1.5928    -3.9830 C.3     
  31 C31            1.3560    -3.0637    -7.3673 C.ar    
  32 C32            2.3283    -3.7837    -8.0587 C.ar    
  33 C33            3.3392    -3.0961    -8.7099 C.ar    
  34 C34            3.3434    -1.7098    -8.6473 C.ar    
  35 C35            2.3431    -1.0587    -7.9403 C.ar    
  36 N36            1.3957    -1.7374    -7.3316 N.ar    
  37 C37            0.2653    -3.7844    -6.6712 C.2     
  38 O38            0.1362    -4.9833    -6.8219 O.2     
  39 Cl39           4.5879    -0.7998    -9.4453 Cl      
  40 H40           -5.1048     6.1064     0.1721 H       
  41 H41           -6.4607     5.2573     2.0402 H       
  42 H42           -5.5114     3.6009     3.5935 H       
  43 H43           -3.5484     2.1956     4.2393 H       
  44 H44           -1.2565     1.4821     3.8142 H       
  45 H45            0.0125     2.3948     1.9181 H       
  46 H46           -1.7269     4.5489    -2.1065 H       
  47 H47           -3.6534     2.8735    -2.5031 H       
  48 H48           -0.1290    -0.4783    -1.6217 H       
  49 H49            0.2771     1.8786    -1.1310 H       
  50 H50           -6.1944     1.0043    -3.7623 H       
  51 H51           -5.5241     1.9370    -2.4025 H       
  52 H52           -4.8858     2.1768    -4.0467 H       
  53 H53           -1.0045    -4.2844    -3.4031 H       
  54 H54           -2.7553    -3.9478    -3.4211 H       
  55 H55           -1.7947    -4.8136    -5.6312 H       
  56 H56           -2.6776    -3.2688    -5.7453 H       
  57 H57            0.6512    -1.4087    -5.9020 H       
  58 H58           -1.0996    -1.0721    -5.9200 H       
  59 H59           -0.3145    -0.5404    -3.6994 H       
  60 H60            0.5727    -2.0825    -3.5829 H       
  61 H61            2.2943    -4.8628    -8.0861 H       
  62 H62            4.1068    -3.6268    -9.2535 H       
  63 H63            2.3429     0.0201    -7.8888 H       
@<TRIPOS>BOND
   1    1    2 ar
   2    1   10 ar
   3    2    3 ar
   4    2   40 1
   5    3    4 ar
   6    3   41 1
   7    4    5 ar
   8    4   42 1
   9    5    6 ar
  10    5   10 ar
  11    6    7 ar
  12    6   43 1
  13    7    8 ar
  14    7   44 1
  15    8    9 ar
  16    8   45 1
  17    9   10 ar
  18    9   11 1
  19   11   12 2
  20   11   13 2
  21   11   14 am
  22   14   15 1
  23   14   46 1
  24   15   16 ar
  25   15   20 ar
  26   16   17 ar
  27   16   47 1
  28   17   18 ar
  29   17   21 1
  30   18   19 ar
  31   18   23 1
  32   19   20 ar
  33   19   48 1
  34   20   49 1
  35   21   22 1
  36   22   50 1
  37   22   51 1
  38   22   52 1
  39   23   24 2
  40   23   25 am
  41   25   26 1
  42   25   30 1
  43   26   27 1
  44   26   53 1
  45   26   54 1
  46   27   28 1
  47   27   55 1
  48   27   56 1
  49   28   29 1
  50   28   37 am
  51   29   30 1
  52   29   57 1
  53   29   58 1
  54   30   59 1
  55   30   60 1
  56   31   32 ar
  57   31   36 ar
  58   31   37 1
  59   32   33 ar
  60   32   61 1
  61   33   34 ar
  62   33   62 1
  63   34   35 ar
  64   34   39 1
  65   35   36 ar
  66   35   63 1
  67   37   38 2

#	End of record

