#	Name: ASD01418053
#	Creating user name:	WinNT
#	Creation time:	15. 06. 2019 19:20

#	Modifying user name:	WinNT
#	Modification time:	15. 06. 2019 19:20

#	Program:	/corina/corina34_cracker 3.40 0067  02.08.2006

@<TRIPOS>MOLECULE
ASD01418053
  90   98    0    0    0
SMALL
NO_CHARGES


@<TRIPOS>ATOM
   1 C1            -1.6010    -0.1816     2.0226 C.ar    
   2 C2            -1.8744    -1.5092     1.6763 C.ar    
   3 C3            -2.9654    -1.8552     0.9258 C.ar    
   4 C4            -3.8103    -0.8098     0.5173 C.ar    
   5 C5            -3.5550     0.5280     0.8819 C.ar    
   6 C6            -2.4388     0.8727     1.6311 C.ar    
   7 C7            -4.9718    -0.7845    -0.2645 C.2     
   8 C8            -5.4695     0.4965    -0.2687 C.2     
   9 N9            -4.5783     1.3150     0.3659 N.pl3   
  10 C10           -6.7936     0.8078    -0.8478 C.ar    
  11 C11           -7.8046    -0.1557    -0.7659 C.ar    
  12 C12           -9.0411     0.0302    -1.3395 C.ar    
  13 C13           -9.3124     1.2184    -1.9967 C.ar    
  14 C14           -8.3498     2.2032    -2.0401 C.ar    
  15 C15           -7.0977     2.0333    -1.4540 C.ar    
  16 C16           -5.4823    -1.9925    -1.0068 C.3     
  17 C17           -4.4223    -2.4634    -2.0047 C.3     
  18 C18           -4.9406    -3.6899    -2.7584 C.3     
  19 C19           -5.2379    -4.8126    -1.7623 C.3     
  20 C20           -6.2978    -4.3416    -0.7645 C.3     
  21 C21           -5.7796    -3.1152    -0.0108 C.3     
  22 C22           -0.3941     0.1199     2.8172 C.2     
  23 N23            0.4278    -0.8776     3.1994 N.am    
  24 C24           -4.4972     2.7564     0.5741 C.3     
  25 C25           -6.1888     3.1628    -1.4691 C.3     
  26 C26           -5.4245     3.6233    -0.2535 C.3     
  27 C27           -4.8842     3.7143    -1.7224 C.3     
  28 C28           -5.8694     4.9061     0.4008 C.2     
  29 N29           -4.9711     5.8765     0.6614 N.am    
  30 O30           -7.0358     5.0652     0.6928 O.2     
  31 C31           -3.4982     5.8438     0.4799 C.3     
  32 C32           -5.2143     7.2408     1.1936 C.3     
  33 C33           -2.8739     5.7995     1.8845 C.3     
  34 N34           -3.2153     7.0380     2.5982 N.3     
  35 C35           -4.6735     7.2642     2.6328 C.3     
  36 C36           -4.3012     8.1469     0.3344 C.3     
  37 C37           -3.1656     7.2225    -0.1379 C.3     
  38 C38           -2.6471     7.0387     3.9528 C.3     
  39 F39          -10.5089     1.4102    -2.5906 F       
  40 O40           -0.1413     1.2683     3.1269 O.2     
  41 S41            1.7817    -0.5392     4.0908 S.o2    
  42 O42            2.4013    -1.8039     4.2807 O.2     
  43 O43            2.4319     0.4932     3.3624 O.2     
  44 C44            1.1407     0.0981     5.6635 C.3     
  45 C45           -0.1674    -0.5317     6.1466 C.3     
  46 C46            2.1605     0.5116     6.7265 C.3     
  47 C47            1.3668     1.5799     5.9701 C.3     
  48 H48           -1.2029    -2.2855     2.0129 H       
  49 H49           -3.1631    -2.8856     0.6660 H       
  50 H50           -2.2300     1.8953     1.9051 H       
  51 H51           -7.6584    -1.0588    -0.1909 H       
  52 H52           -9.7916    -0.7446    -1.2745 H       
  53 H53           -8.5756     3.1289    -2.5512 H       
  54 H54           -6.3948    -1.7309    -1.5425 H       
  55 H55           -4.2105    -1.6636    -2.7143 H       
  56 H56           -3.5098    -2.7250    -1.4690 H       
  57 H57           -5.8532    -3.4283    -3.2940 H       
  58 H58           -4.1855    -4.0254    -3.4692 H       
  59 H59           -5.6071    -5.6863    -2.2993 H       
  60 H60           -4.3254    -5.0741    -1.2267 H       
  61 H61           -7.2104    -4.0801    -1.3002 H       
  62 H62           -6.5097    -5.1415    -0.0549 H       
  63 H63           -4.8670    -3.3767     0.5249 H       
  64 H64           -6.5347    -2.7797     0.7001 H       
  65 H65            0.2261    -1.7936     2.9523 H       
  66 H66           -4.6970     2.9555     1.6293 H       
  67 H67           -3.4707     3.0695     0.3722 H       
  68 H68           -6.8234     3.9736    -1.8242 H       
  69 H69           -4.0953     3.0251    -2.0188 H       
  70 H70           -4.8428     4.7031    -2.1841 H       
  71 H71           -3.1746     5.0099    -0.1430 H       
  72 H72           -6.2652     7.5258     1.1420 H       
  73 H73           -3.2672     4.9428     2.4317 H       
  74 H74           -1.7905     5.7141     1.7996 H       
  75 H75           -4.8849     8.2325     3.0863 H       
  76 H76           -5.1501     6.4752     3.2146 H       
  77 H77           -4.8508     8.5377    -0.5219 H       
  78 H78           -3.9020     8.9637     0.9358 H       
  79 H79           -2.2044     7.5817     0.2296 H       
  80 H80           -3.1579     7.1594    -1.2260 H       
  81 H81           -1.5618     6.9584     3.8916 H       
  82 H82           -2.9149     7.9663     4.4587 H       
  83 H83           -3.0430     6.1918     4.5133 H       
  84 H84            0.0519    -1.4426     6.7036 H       
  85 H85           -0.6923     0.1718     6.7929 H       
  86 H86           -0.7935    -0.7728     5.2877 H       
  87 H87            1.8994     0.3354     7.7700 H       
  88 H88            3.2166     0.4008     6.4807 H       
  89 H89            1.9011     2.1718     5.2269 H       
  90 H90            0.5839     2.1061     6.5162 H       
@<TRIPOS>BOND
   1    1    2 ar
   2    1   22 1
   3    1    6 ar
   4    2    3 ar
   5    2   48 1
   6    3    4 ar
   7    3   49 1
   8    4    5 ar
   9    4    7 1
  10    5    6 ar
  11    5    9 1
  12    6   50 1
  13    7    8 2
  14    7   16 1
  15    8    9 1
  16    8   10 1
  17    9   24 1
  18   10   11 ar
  19   10   15 ar
  20   11   12 ar
  21   11   51 1
  22   12   13 ar
  23   12   52 1
  24   13   14 ar
  25   13   39 1
  26   14   15 ar
  27   14   53 1
  28   15   25 1
  29   16   17 1
  30   16   21 1
  31   16   54 1
  32   17   18 1
  33   17   55 1
  34   17   56 1
  35   18   19 1
  36   18   57 1
  37   18   58 1
  38   19   20 1
  39   19   59 1
  40   19   60 1
  41   20   21 1
  42   20   61 1
  43   20   62 1
  44   21   63 1
  45   21   64 1
  46   22   23 am
  47   22   40 2
  48   23   41 am
  49   23   65 1
  50   24   26 1
  51   24   66 1
  52   24   67 1
  53   25   26 1
  54   25   27 1
  55   25   68 1
  56   26   27 1
  57   26   28 1
  58   27   69 1
  59   27   70 1
  60   28   29 am
  61   28   30 2
  62   29   31 1
  63   29   32 1
  64   31   33 1
  65   31   37 1
  66   31   71 1
  67   32   35 1
  68   32   36 1
  69   32   72 1
  70   33   34 1
  71   33   73 1
  72   33   74 1
  73   34   35 1
  74   34   38 1
  75   35   75 1
  76   35   76 1
  77   36   37 1
  78   36   77 1
  79   36   78 1
  80   37   79 1
  81   37   80 1
  82   38   81 1
  83   38   82 1
  84   38   83 1
  85   41   42 2
  86   41   43 2
  87   41   44 1
  88   44   45 1
  89   44   46 1
  90   44   47 1
  91   45   84 1
  92   45   85 1
  93   45   86 1
  94   46   47 1
  95   46   87 1
  96   46   88 1
  97   47   89 1
  98   47   90 1

#	End of record

