#	Name: ASD01150982
#	Creating user name:	WinNT
#	Creation time:	15. 06. 2019 19:05

#	Modifying user name:	WinNT
#	Modification time:	15. 06. 2019 19:05

#	Program:	/corina/corina34_cracker 3.40 0067  02.08.2006

@<TRIPOS>MOLECULE
ASD01150982
  53   55    0    0    0
SMALL
NO_CHARGES


@<TRIPOS>ATOM
   1 C1            -0.0773     1.4851     0.5118 C.2     
   2 N2            -0.0076     0.2039     0.4237 N.2     
   3 C3            -1.1729    -0.4408     0.3039 C.2     
   4 C4            -2.2744     0.3782     0.2939 C.2     
   5 S5            -1.7580     2.0007     0.4512 S.3     
   6 C6             1.1058     2.4079     0.6528 C.3     
   7 N7            -3.5900    -0.0416     0.1802 N.am    
   8 C8            -1.2661    -1.8981     0.1920 C.2     
   9 O9            -2.3541    -2.4315     0.0848 O.2     
  10 O10           -0.1455    -2.6489     0.2080 O.3     
  11 C11           -0.3135    -4.0865     0.0928 C.3     
  12 C12            1.0575    -4.7647     0.1297 C.3     
  13 C13           -4.5888     0.8633     0.1829 C.2     
  14 C14           -6.0090     0.4188    -0.0549 C.3     
  15 O15           -4.3446     2.0353     0.3767 O.2     
  16 C16            1.8872     2.0711     1.9349 C.3     
  17 C17            3.3096     1.6710     1.4918 C.3     
  18 C18            3.4841     2.3540     0.1127 C.3     
  19 C19            2.0808     2.2007    -0.5247 C.3     
  20 C20           -6.6213    -0.0251     1.2486 C.ar    
  21 C21           -6.8187     1.5836    -0.6282 C.3     
  22 C22           -6.2877     1.9382    -2.0186 C.3     
  23 C23           -7.0828    -1.3205     1.3896 C.ar    
  24 C24           -7.6446    -1.7277     2.5852 C.ar    
  25 C25           -7.7444    -0.8397     3.6399 C.ar    
  26 C26           -7.2820     0.4554     3.4992 C.ar    
  27 C27           -6.7163     0.8614     2.3050 C.ar    
  28 H28            0.7693     3.4442     0.6820 H       
  29 H29           -3.7922    -0.9868     0.0987 H       
  30 H30           -0.9206    -4.4490     0.9223 H       
  31 H31           -0.8091    -4.3201    -0.8495 H       
  32 H32            1.6646    -4.4023    -0.6998 H       
  33 H33            1.5531    -4.5312     1.0720 H       
  34 H34            0.9314    -5.8440     0.0433 H       
  35 H35           -6.0164    -0.4113    -0.7612 H       
  36 H36            1.9306     2.9442     2.5859 H       
  37 H37            1.4106     1.2402     2.4552 H       
  38 H38            4.0492     2.0458     2.1995 H       
  39 H39            3.3884     0.5882     1.3940 H       
  40 H40            3.7410     3.4065     0.2326 H       
  41 H41            4.2371     1.8368    -0.4820 H       
  42 H42            1.9610     1.2035    -0.9482 H       
  43 H43            1.9235     2.9620    -1.2887 H       
  44 H44           -7.8673     1.2954    -0.7023 H       
  45 H45           -6.7252     2.4489     0.0280 H       
  46 H46           -6.8060     2.8219    -2.3909 H       
  47 H47           -5.2188     2.1425    -1.9581 H       
  48 H48           -6.4602     1.1029    -2.6973 H       
  49 H49           -7.0049    -2.0143     0.5656 H       
  50 H50           -8.0058    -2.7396     2.6952 H       
  51 H51           -8.1839    -1.1577     4.5738 H       
  52 H52           -7.3603     1.1493     4.3231 H       
  53 H53           -6.3551     1.8732     2.1950 H       
@<TRIPOS>BOND
   1    1    2 2
   2    1    6 1
   3    1    5 1
   4    2    3 1
   5    3    4 2
   6    3    8 1
   7    4    5 1
   8    4    7 1
   9    6   16 1
  10    6   19 1
  11    6   28 1
  12    7   13 am
  13    7   29 1
  14    8    9 2
  15    8   10 1
  16   10   11 1
  17   11   12 1
  18   11   30 1
  19   11   31 1
  20   12   32 1
  21   12   33 1
  22   12   34 1
  23   13   14 1
  24   13   15 2
  25   14   20 1
  26   14   21 1
  27   14   35 1
  28   16   17 1
  29   16   36 1
  30   16   37 1
  31   17   18 1
  32   17   38 1
  33   17   39 1
  34   18   19 1
  35   18   40 1
  36   18   41 1
  37   19   42 1
  38   19   43 1
  39   20   23 ar
  40   20   27 ar
  41   21   22 1
  42   21   44 1
  43   21   45 1
  44   22   46 1
  45   22   47 1
  46   22   48 1
  47   23   24 ar
  48   23   49 1
  49   24   25 ar
  50   24   50 1
  51   25   26 ar
  52   25   51 1
  53   26   27 ar
  54   26   52 1
  55   27   53 1

#	End of record

