#	Name: ASD01917222
#	Creating user name:	WinNT
#	Creation time:	15. 06. 2019 20:08

#	Modifying user name:	WinNT
#	Modification time:	15. 06. 2019 20:08

#	Program:	/corina/corina34_cracker 3.40 0067  02.08.2006

@<TRIPOS>MOLECULE
ASD01917222
  47   50    0    0    0
SMALL
NO_CHARGES


@<TRIPOS>ATOM
   1 N1            -0.0165     1.3656     0.0096 N.pl3   
   2 C2             0.0021    -0.0041     0.0020 C.2     
   3 C3             1.2695    -0.7654    -0.0218 C.2     
   4 N4             2.2386    -0.3078     0.8092 N.am    
   5 C5             1.8899     0.6506     1.8462 C.3     
   6 C6             1.8922     2.1003     1.3636 C.3     
   7 C7             1.1884     2.1931     0.0025 C.3     
   8 N8            -1.3526     1.7651     0.0303 N.2     
   9 C9            -2.1134     0.6915     0.0384 C.2     
  10 C10           -1.2909    -0.4429     0.0173 C.2     
  11 O11            1.4315    -1.7356    -0.7372 O.2     
  12 O12           -3.4733     0.6841     0.0604 O.3     
  13 C13           -4.1288     1.9537     0.0755 C.3     
  14 C14           -5.6215     1.7481     0.0990 C.ar    
  15 C15           -6.2868     1.6496     1.3067 C.ar    
  16 C16           -7.6560     1.4609     1.3282 C.ar    
  17 C17           -8.3601     1.3713     0.1420 C.ar    
  18 C18           -7.6950     1.4707    -1.0658 C.ar    
  19 C19           -6.3263     1.6637    -1.0872 C.ar    
  20 C20            3.6200    -0.7736     0.6644 C.3     
  21 C21            4.3597     0.1348    -0.2836 C.ar    
  22 C22            5.0285     1.2430     0.2015 C.ar    
  23 C23            5.7070     2.0763    -0.6681 C.ar    
  24 C24            5.7170     1.8011    -2.0228 C.ar    
  25 C25            5.0489     0.6923    -2.5077 C.ar    
  26 C26            4.3740    -0.1434    -1.6376 C.ar    
  27 H27            0.8960     0.4101     2.2236 H       
  28 H28            2.6035     0.5542     2.6645 H       
  29 H29            1.3670     2.7241     2.0868 H       
  30 H30            2.9205     2.4480     1.2646 H       
  31 H31            1.8633     1.8437    -0.7788 H       
  32 H32            0.9146     3.2298    -0.1938 H       
  33 H33           -1.6184    -1.4720     0.0175 H       
  34 H34           -3.8246     2.5092     0.9627 H       
  35 H35           -3.8534     2.5155    -0.8171 H       
  36 H36           -5.7367     1.7196     2.2335 H       
  37 H37           -8.1757     1.3832     2.2718 H       
  38 H38           -9.4297     1.2232     0.1588 H       
  39 H39           -8.2450     1.4003    -1.9926 H       
  40 H40           -5.8072     1.7451    -2.0308 H       
  41 H41            4.1114    -0.7613     1.6373 H       
  42 H42            3.6213    -1.7896     0.2696 H       
  43 H43            5.0207     1.4580     1.2598 H       
  44 H44            6.2290     2.9425    -0.2892 H       
  45 H45            6.2465     2.4525    -2.7023 H       
  46 H46            5.0564     0.4775    -3.5661 H       
  47 H47            3.8551    -1.0117    -2.0161 H       
@<TRIPOS>BOND
   1    1    2 1
   2    1    7 1
   3    1    8 1
   4    2    3 1
   5    2   10 2
   6    3    4 am
   7    3   11 2
   8    4    5 1
   9    4   20 1
  10    5    6 1
  11    5   27 1
  12    5   28 1
  13    6    7 1
  14    6   29 1
  15    6   30 1
  16    7   31 1
  17    7   32 1
  18    8    9 2
  19    9   10 1
  20    9   12 1
  21   10   33 1
  22   12   13 1
  23   13   14 1
  24   13   34 1
  25   13   35 1
  26   14   15 ar
  27   14   19 ar
  28   15   16 ar
  29   15   36 1
  30   16   17 ar
  31   16   37 1
  32   17   18 ar
  33   17   38 1
  34   18   19 ar
  35   18   39 1
  36   19   40 1
  37   20   21 1
  38   20   41 1
  39   20   42 1
  40   21   22 ar
  41   21   26 ar
  42   22   23 ar
  43   22   43 1
  44   23   24 ar
  45   23   44 1
  46   24   25 ar
  47   24   45 1
  48   25   26 ar
  49   25   46 1
  50   26   47 1

#	End of record

