#	Name: ASD01815625
#	Creating user name:	WinNT
#	Creation time:	15. 06. 2019 19:33

#	Modifying user name:	WinNT
#	Modification time:	15. 06. 2019 19:33

#	Program:	/corina/corina34_cracker 3.40 0067  02.08.2006

@<TRIPOS>MOLECULE
ASD01815625
  34   36    0    0    0
SMALL
NO_CHARGES


@<TRIPOS>ATOM
   1 C1             1.1541     2.2503    -0.5134 C.ar    
   2 C2             0.7781     0.9150    -0.4983 C.ar    
   3 C3             1.7210    -0.0805    -0.3464 C.ar    
   4 C4             3.0680     0.2525    -0.2065 C.ar    
   5 C5             3.4441     1.6059    -0.2229 C.ar    
   6 C6             2.4790     2.6012    -0.3769 C.ar    
   7 N7             4.0207    -0.7323    -0.0534 N.pl3   
   8 C8             5.3251    -0.4645     0.0853 C.2     
   9 C9             5.8152     0.8261     0.0848 C.2     
  10 C10            4.8719     1.9446    -0.0740 C.2     
  11 O11            5.2542     3.1016    -0.0815 O.2     
  12 C12            7.2546     1.0789     0.2402 C.2     
  13 O13            8.0247     0.1473     0.3706 O.2     
  14 O14            7.7209     2.3437     0.2381 O.3     
  15 C15            3.5871    -2.1316    -0.0416 C.3     
  16 C16            3.4443    -2.6253    -1.4583 C.ar    
  17 C17            4.5245    -2.5729    -2.3214 C.ar    
  18 C18            4.3916    -3.0280    -3.6247 C.ar    
  19 C19            3.1790    -3.5335    -4.0592 C.ar    
  20 C20            2.1015    -3.5845    -3.1943 C.ar    
  21 C21            2.2355    -3.1357    -1.8939 C.ar    
  22 F22            1.3399    -1.3766    -0.3326 F       
  23 F23            5.7073    -2.0785    -1.8951 F       
  24 F24            5.4448    -2.9775    -4.4694 F       
  25 H25            0.4048     3.0183    -0.6373 H       
  26 H26           -0.2638     0.6520    -0.6062 H       
  27 H27            2.7692     3.6414    -0.3897 H       
  28 H28            6.0170    -1.2856     0.2018 H       
  29 H29            8.6751     2.4600     0.3434 H       
  30 H30            4.3275    -2.7370     0.4812 H       
  31 H31            2.6273    -2.2103     0.4691 H       
  32 H32            3.0741    -3.8879    -5.0740 H       
  33 H33            1.1554    -3.9791    -3.5340 H       
  34 H34            1.3927    -3.1764    -1.2197 H       
@<TRIPOS>BOND
   1    1    2 ar
   2    1    6 ar
   3    1   25 1
   4    2    3 ar
   5    2   26 1
   6    3    4 ar
   7    3   22 1
   8    4    5 ar
   9    4    7 1
  10    5    6 ar
  11    5   10 1
  12    6   27 1
  13    7    8 1
  14    7   15 1
  15    8    9 2
  16    8   28 1
  17    9   10 1
  18    9   12 1
  19   10   11 2
  20   12   13 2
  21   12   14 1
  22   14   29 1
  23   15   16 1
  24   15   30 1
  25   15   31 1
  26   16   17 ar
  27   16   21 ar
  28   17   18 ar
  29   17   23 1
  30   18   19 ar
  31   18   24 1
  32   19   20 ar
  33   19   32 1
  34   20   21 ar
  35   20   33 1
  36   21   34 1

#	End of record

