#	Name: ASD07300950
#	Creating user name:	WinNT
#	Creation time:	15. 06. 2019 21:10

#	Modifying user name:	WinNT
#	Modification time:	15. 06. 2019 21:10

#	Program:	/corina/corina34_cracker 3.40 0067  02.08.2006

@<TRIPOS>MOLECULE
ASD07300950
  48   52    0    0    0
SMALL
NO_CHARGES


@<TRIPOS>ATOM
   1 N1            -0.3573     1.2708     0.3739 N.am    
   2 C2            -0.2619    -0.0805     0.2950 C.2     
   3 N3             0.8713    -0.7050     0.1592 N.2     
   4 C4             2.0385    -0.0473     0.0864 C.2     
   5 C5             2.0401     1.3549     0.1586 C.2     
   6 C6             0.7559     2.0383     0.3118 C.2     
   7 N7             3.3373    -0.4302    -0.0521 N.pl3   
   8 N8             4.1352     0.7209    -0.0657 N.2     
   9 C9             3.3790     1.7771     0.0579 C.2     
  10 O10            0.6907     3.2530     0.3800 O.2     
  11 C11            3.7970    -1.7489    -0.1615 C.ar    
  12 C12            3.1954    -2.6335    -1.0465 C.ar    
  13 N13            3.6248    -3.8752    -1.1519 N.ar    
  14 C14            4.6325    -4.3255    -0.4304 C.ar    
  15 C15            5.2824    -3.5045     0.4727 C.ar    
  16 C16            4.8680    -2.1903     0.6118 C.ar    
  17 C17           -1.5273    -0.8957     0.3687 C.3     
  18 C18           -2.2466    -1.0401    -0.9828 C.3     
  19 C19           -2.5299    -2.4989    -0.5871 C.3     
  20 C20           -1.2863    -2.4135     0.3135 C.3     
  21 C21           -1.3306    -0.9041    -2.1718 C.2     
  22 N22           -1.3625     0.0664    -3.0214 N.2     
  23 C23           -0.4873     0.0320    -4.0060 C.2     
  24 C24            0.3283    -1.0265    -3.9857 C.2     
  25 S25           -0.0939    -2.0097    -2.5858 S.3     
  26 C26            1.4199    -1.3238    -4.9812 C.3     
  27 C27           -0.4126     1.0985    -5.0680 C.3     
  28 C28            5.5508    -1.2644     1.5852 C.3     
  29 H29           -1.2273     1.6886     0.4712 H       
  30 H30            3.7220     2.8010     0.0788 H       
  31 H31            2.3670    -2.3009    -1.6544 H       
  32 H32            4.9545    -5.3499    -0.5462 H       
  33 H33            6.1066    -3.8824     1.0595 H       
  34 H34           -2.1837    -0.5858     1.1818 H       
  35 H35           -3.1447    -0.4282    -1.0670 H       
  36 H36           -3.4607    -2.6286    -0.0350 H       
  37 H37           -2.4241    -3.2034    -1.4120 H       
  38 H38           -0.3613    -2.6907    -0.1921 H       
  39 H39           -1.4092    -2.9104     1.2758 H       
  40 H40            2.3671    -0.9329    -4.6095 H       
  41 H41            1.5013    -2.4019    -5.1201 H       
  42 H42            1.1810    -0.8518    -5.9342 H       
  43 H43            0.2744     1.8821    -4.7483 H       
  44 H44           -0.0548     0.6595    -5.9993 H       
  45 H45           -1.4032     1.5254    -5.2246 H       
  46 H46            6.4082    -0.7966     1.1014 H       
  47 H47            4.8499    -0.4939     1.9065 H       
  48 H48            5.8882    -1.8329     2.4519 H       
@<TRIPOS>BOND
   1    1    2 1
   2    1    6 am
   3    1   29 1
   4    2    3 2
   5    2   17 1
   6    3    4 1
   7    4    5 2
   8    4    7 1
   9    5    6 1
  10    5    9 1
  11    6   10 2
  12    7    8 1
  13    7   11 1
  14    8    9 2
  15    9   30 1
  16   11   12 ar
  17   11   16 ar
  18   12   13 ar
  19   12   31 1
  20   13   14 ar
  21   14   15 ar
  22   14   32 1
  23   15   16 ar
  24   15   33 1
  25   16   28 1
  26   17   18 1
  27   17   20 1
  28   17   34 1
  29   18   19 1
  30   18   21 1
  31   18   35 1
  32   19   20 1
  33   19   36 1
  34   19   37 1
  35   20   38 1
  36   20   39 1
  37   21   22 2
  38   21   25 1
  39   22   23 1
  40   23   24 2
  41   23   27 1
  42   24   25 1
  43   24   26 1
  44   26   40 1
  45   26   41 1
  46   26   42 1
  47   27   43 1
  48   27   44 1
  49   27   45 1
  50   28   46 1
  51   28   47 1
  52   28   48 1

#	End of record

