#	Name: ASD00061035
#	Creating user name:	WinNT
#	Creation time:	15. 06. 2019 18:29

#	Modifying user name:	WinNT
#	Modification time:	15. 06. 2019 18:29

#	Program:	/corina/corina34_cracker 3.40 0067  02.08.2006

@<TRIPOS>MOLECULE
ASD00061035
  40   41    0    0    0
SMALL
NO_CHARGES


@<TRIPOS>ATOM
   1 C1            -0.4206     3.9438    -0.3663 C.ar    
   2 C2            -0.9404     2.6577    -0.4654 C.ar    
   3 C3            -0.0897     1.5574    -0.4751 C.ar    
   4 C4             1.2669     1.7359    -0.3865 C.ar    
   5 C5             1.7955     3.0288    -0.2866 C.ar    
   6 C6             0.9345     4.1333    -0.2776 C.ar    
   7 C7             3.2477     3.2258    -0.1914 C.2     
   8 C8             3.8137     4.6183    -0.0839 C.3     
   9 O9             3.9915     2.2677    -0.1993 O.2     
  10 C10            5.3245     4.5385     0.1442 C.3     
  11 C11            5.9105     5.9267     0.1184 C.ar    
  12 C12            6.8739     6.2527    -0.8178 C.ar    
  13 C13            7.4117     7.5257    -0.8419 C.ar    
  14 C14            6.9856     8.4738     0.0712 C.ar    
  15 C15            6.0213     8.1469     1.0079 C.ar    
  16 C16            5.4802     6.8752     1.0274 C.ar    
  17 O17           -2.2820     2.4756    -0.5524 O.3     
  18 Cl18           7.6610    10.0727     0.0419 Cl      
  19 C19            5.6017     3.8931     1.5034 C.3     
  20 C20            7.0828     3.9211     1.7802 C.2     
  21 O21            7.5001     4.4501     2.7831 O.2     
  22 O22            7.9384     3.3583     0.9125 O.3     
  23 C23            4.8750     4.6573     2.5799 C.2     
  24 O24            5.4618     5.4881     3.2320 O.2     
  25 O25            3.5757     4.4150     2.8144 O.3     
  26 H26           -1.0852     4.7951    -0.3637 H       
  27 H27           -0.4984     0.5607    -0.5522 H       
  28 H28            1.9266     0.8808    -0.3934 H       
  29 H29            1.3372     5.1324    -0.2011 H       
  30 H30            3.6138     5.1639    -1.0061 H       
  31 H31            3.3467     5.1367     0.7535 H       
  32 H32            5.7796     3.9374    -0.6430 H       
  33 H33            7.2067     5.5124    -1.5303 H       
  34 H34            8.1646     7.7802    -1.5732 H       
  35 H35            5.6883     8.8865     1.7209 H       
  36 H36            4.7275     6.6199     1.7586 H       
  37 H37           -2.6202     2.4702    -1.4583 H       
  38 H38            5.2535     2.8602     1.4930 H       
  39 H39            8.8821     3.4660     1.0940 H       
  40 H40            3.1525     4.9301     3.5149 H       
@<TRIPOS>BOND
   1    1    2 ar
   2    1    6 ar
   3    1   26 1
   4    2    3 ar
   5    2   17 1
   6    3    4 ar
   7    3   27 1
   8    4    5 ar
   9    4   28 1
  10    5    6 ar
  11    5    7 1
  12    6   29 1
  13    7    8 1
  14    7    9 2
  15    8   10 1
  16    8   30 1
  17    8   31 1
  18   10   11 1
  19   10   19 1
  20   10   32 1
  21   11   12 ar
  22   11   16 ar
  23   12   13 ar
  24   12   33 1
  25   13   14 ar
  26   13   34 1
  27   14   15 ar
  28   14   18 1
  29   15   16 ar
  30   15   35 1
  31   16   36 1
  32   17   37 1
  33   19   20 1
  34   19   23 1
  35   19   38 1
  36   20   21 2
  37   20   22 1
  38   22   39 1
  39   23   24 2
  40   23   25 1
  41   25   40 1

#	End of record

