#	Name: ASD00310241
#	Creating user name:	WinNT
#	Creation time:	15. 06. 2019 18:34

#	Modifying user name:	WinNT
#	Modification time:	15. 06. 2019 18:34

#	Program:	/corina/corina34_cracker 3.40 0067  02.08.2006

@<TRIPOS>MOLECULE
ASD00310241
  67   70    0    0    0
SMALL
NO_CHARGES


@<TRIPOS>ATOM
   1 N1             0.0199     1.1444    -0.2037 N.pl3   
   2 C2             0.0491    -0.2016    -0.0583 C.2     
   3 C3             1.3425    -0.6299     0.0177 C.2     
   4 C4             2.1880     0.5742    -0.0923 C.ar    
   5 C5             3.5616     0.7916    -0.0839 C.ar    
   6 C6             4.0521     2.0849    -0.2117 C.ar    
   7 C7             3.1662     3.1594    -0.3473 C.ar    
   8 C8             1.8066     2.9464    -0.3558 C.ar    
   9 C9             1.3015     1.6550    -0.2290 C.ar    
  10 C10            1.8016    -2.0142     0.1779 C.2     
  11 O11            2.9917    -2.2576     0.2320 O.2     
  12 O12            0.9038    -3.0165     0.2653 O.3     
  13 Cl13           3.7866     4.7730    -0.5054 Cl      
  14 C14            5.5158     2.3270    -0.2039 C.ar    
  15 C15            6.1003     3.1028    -1.2038 C.ar    
  16 C16            7.4650     3.3266    -1.1928 C.ar    
  17 C17            8.2523     2.7771    -0.1838 C.ar    
  18 C18            7.6700     2.0058     0.8100 C.ar    
  19 C19            6.3073     1.7841     0.8059 C.ar    
  20 O20            8.0382     4.0827    -2.1671 O.3     
  21 C21            7.1706     4.6143    -3.1705 C.3     
  22 O22            9.5941     2.9971    -0.1737 O.3     
  23 C23           10.3409     2.4035     0.8903 C.3     
  24 N24           12.3572     2.1876    -0.5140 N.am    
  25 C25           11.8209     2.7589     0.7347 C.3     
  26 C26           11.9939     4.2902     0.5766 C.3     
  27 C27           13.3513     4.3748    -0.1701 C.3     
  28 C28           13.3144     3.1402    -1.0953 C.3     
  29 C29           12.0289     0.9882    -1.0336 C.2     
  30 O30           11.3016     0.2366    -0.4150 O.2     
  31 O31           12.5068     0.6227    -2.2381 O.3     
  32 C32           12.1118    -0.6830    -2.7355 C.3     
  33 C33           10.5882    -0.7406    -2.8630 C.3     
  34 C34           12.7477    -0.9201    -4.1067 C.3     
  35 C35           12.5832    -1.7641    -1.7609 C.3     
  36 C36            1.4297    -4.3607     0.4227 C.3     
  37 H37           -0.7885     1.6747    -0.2831 H       
  38 H38           -0.8206    -0.8401    -0.0094 H       
  39 H39            4.2427    -0.0398     0.0216 H       
  40 H40            1.1304     3.7820    -0.4606 H       
  41 H41            5.4886     3.5280    -1.9857 H       
  42 H42            8.2828     1.5809     1.5912 H       
  43 H43            5.8554     1.1863     1.5835 H       
  44 H44            6.6717     3.7961    -3.6901 H       
  45 H45            6.4243     5.2563    -2.7026 H       
  46 H46            7.7540     5.1959    -3.8843 H       
  47 H47            9.9751     2.7805     1.8453 H       
  48 H48           10.2219     1.3205     0.8576 H       
  49 H49           12.3903     2.3993     1.5917 H       
  50 H50           11.1899     4.7142    -0.0250 H       
  51 H51           12.0517     4.7793     1.5490 H       
  52 H52           13.4134     5.2929    -0.7544 H       
  53 H53           14.1825     4.3062     0.5317 H       
  54 H54           14.3040     2.6863    -1.1473 H       
  55 H55           12.9861     3.4338    -2.0923 H       
  56 H56           10.2524     0.0296    -3.5574 H       
  57 H57           10.2916    -1.7207    -3.2365 H       
  58 H58           10.1352    -0.5716    -1.8862 H       
  59 H59           13.8331    -0.8791    -4.0159 H       
  60 H60           12.4511    -1.9003    -4.4801 H       
  61 H61           12.4119    -0.1500    -4.8011 H       
  62 H62           12.1302    -1.5951    -0.7840 H       
  63 H63           12.2866    -2.7443    -2.1343 H       
  64 H64           13.6686    -1.7231    -1.6700 H       
  65 H65            2.0607    -4.6064    -0.4314 H       
  66 H66            2.0194    -4.4153     1.3378 H       
  67 H67            0.6037    -5.0696     0.4800 H       
@<TRIPOS>BOND
   1    1    2 1
   2    1    9 1
   3    1   37 1
   4    2    3 2
   5    2   38 1
   6    3    4 1
   7    3   10 1
   8    4    5 ar
   9    4    9 ar
  10    5    6 ar
  11    5   39 1
  12    6    7 ar
  13    6   14 1
  14    7    8 ar
  15    7   13 1
  16    8    9 ar
  17    8   40 1
  18   10   11 2
  19   10   12 1
  20   12   36 1
  21   14   15 ar
  22   14   19 ar
  23   15   16 ar
  24   15   41 1
  25   16   17 ar
  26   16   20 1
  27   17   18 ar
  28   17   22 1
  29   18   19 ar
  30   18   42 1
  31   19   43 1
  32   20   21 1
  33   21   44 1
  34   21   45 1
  35   21   46 1
  36   22   23 1
  37   23   25 1
  38   23   47 1
  39   23   48 1
  40   24   25 1
  41   24   28 1
  42   24   29 am
  43   25   26 1
  44   25   49 1
  45   26   27 1
  46   26   50 1
  47   26   51 1
  48   27   28 1
  49   27   52 1
  50   27   53 1
  51   28   54 1
  52   28   55 1
  53   29   30 2
  54   29   31 1
  55   31   32 1
  56   32   33 1
  57   32   35 1
  58   32   34 1
  59   33   56 1
  60   33   57 1
  61   33   58 1
  62   34   59 1
  63   34   60 1
  64   34   61 1
  65   35   62 1
  66   35   63 1
  67   35   64 1
  68   36   65 1
  69   36   66 1
  70   36   67 1

#	End of record

