#	Name: ASD03930199
#	Creating user name:	WinNT
#	Creation time:	15. 06. 2019 20:47

#	Modifying user name:	WinNT
#	Modification time:	15. 06. 2019 20:47

#	Program:	/corina/corina34_cracker 3.40 0067  02.08.2006

@<TRIPOS>MOLECULE
ASD03930199
  56   59    0    0    0
SMALL
NO_CHARGES


@<TRIPOS>ATOM
   1 S1            -0.0762     4.0294    -0.9983 S.o2    
   2 N2            -0.7567     2.5458    -1.3359 N.am    
   3 C3            -0.4951     1.9164    -2.6266 C.3     
   4 C4             0.9729     1.5777    -2.8369 C.3     
   5 O5             1.7784     2.7618    -2.8749 O.3     
   6 C6             2.3635     3.1146    -1.7023 C.ar    
   7 C7             1.6338     3.6816    -0.6665 C.ar    
   8 C8             3.7229     2.8904    -1.5133 C.ar    
   9 C9             4.3092     3.1899    -0.2997 C.ar    
  10 C10            3.5560     3.7152     0.7399 C.ar    
  11 C11            2.2007     3.9670     0.5475 C.ar    
  12 C12           -1.5402     1.9335    -0.4263 C.2     
  13 O13           -2.0333     0.8520    -0.6788 O.2     
  14 O14           -1.7767     2.5200     0.7623 O.3     
  15 O15            4.1378     3.9820     1.9394 O.3     
  16 C16            3.3392     4.3931     2.9580 C.ar    
  17 C17            2.7471     3.4569     3.7959 C.ar    
  18 C18            1.9357     3.8714     4.8304 C.ar    
  19 C19            1.7100     5.2317     5.0354 C.ar    
  20 C20            2.3059     6.1693     4.1932 C.ar    
  21 C21            3.1206     5.7493     3.1634 C.ar    
  22 O22           -0.4139     5.5907     7.7904 O.3     
  23 N23            0.2186     4.9136     7.0077 N.2     
  24 C24            0.8369     5.6808     6.1474 C.2     
  25 N25            0.5315     6.9601     6.4620 N.2     
  26 C26           -0.2601     6.8870     7.5029 C.2     
  27 C27           -0.8810     8.0466     8.2383 C.3     
  28 O28           -0.1151     4.7819    -2.2030 O.2     
  29 O29           -0.6486     4.4742     0.2239 O.2     
  30 C30           -2.6298     1.8030     1.6932 C.3     
  31 C31           -2.0003     0.4477     2.0216 C.3     
  32 C32           -2.7819     2.6194     2.9782 C.3     
  33 C33           -4.0059     1.5864     1.0606 C.3     
  34 H34           -1.0799     0.9991    -2.6944 H       
  35 H35           -0.8158     2.5933    -3.4184 H       
  36 H36            1.3129     0.9405    -2.0205 H       
  37 H37            1.0840     1.0398    -3.7784 H       
  38 H38            4.3196     2.4818    -2.3154 H       
  39 H39            5.3652     3.0130    -0.1583 H       
  40 H40            1.6032     4.3821     1.3457 H       
  41 H41            2.9223     2.4032     3.6366 H       
  42 H42            1.4749     3.1430     5.4812 H       
  43 H43            2.1327     7.2237     4.3497 H       
  44 H44            3.5858     6.4753     2.5131 H       
  45 H45           -1.4898     7.6712     9.0608 H       
  46 H46           -0.0943     8.6898     8.6327 H       
  47 H47           -1.5079     8.6175     7.5534 H       
  48 H48           -1.0199     0.6020     2.4722 H       
  49 H49           -2.6407    -0.0906     2.7203 H       
  50 H50           -1.8920    -0.1340     1.1061 H       
  51 H51           -3.2303     3.5850     2.7442 H       
  52 H52           -3.4223     2.0812     3.6769 H       
  53 H53           -1.8015     2.7737     3.4288 H       
  54 H54           -3.8976     1.0047     0.1452 H       
  55 H55           -4.6463     1.0481     1.7594 H       
  56 H56           -4.4544     2.5519     0.8267 H       
@<TRIPOS>BOND
   1    1    2 am
   2    1    7 1
   3    1   28 2
   4    1   29 2
   5    2    3 1
   6    2   12 am
   7    3    4 1
   8    3   34 1
   9    3   35 1
  10    4    5 1
  11    4   36 1
  12    4   37 1
  13    5    6 1
  14    6    7 ar
  15    6    8 ar
  16    7   11 ar
  17    8    9 ar
  18    8   38 1
  19    9   10 ar
  20    9   39 1
  21   10   11 ar
  22   10   15 1
  23   11   40 1
  24   12   13 2
  25   12   14 1
  26   14   30 1
  27   15   16 1
  28   16   17 ar
  29   16   21 ar
  30   17   18 ar
  31   17   41 1
  32   18   19 ar
  33   18   42 1
  34   19   20 ar
  35   19   24 1
  36   20   21 ar
  37   20   43 1
  38   21   44 1
  39   22   23 1
  40   22   26 1
  41   23   24 2
  42   24   25 1
  43   25   26 2
  44   26   27 1
  45   27   45 1
  46   27   46 1
  47   27   47 1
  48   30   31 1
  49   30   33 1
  50   30   32 1
  51   31   48 1
  52   31   49 1
  53   31   50 1
  54   32   51 1
  55   32   52 1
  56   32   53 1
  57   33   54 1
  58   33   55 1
  59   33   56 1

#	End of record

