#	Name: ASD03090777
#	Creating user name:	WinNT
#	Creation time:	15. 06. 2019 20:29

#	Modifying user name:	WinNT
#	Modification time:	15. 06. 2019 20:29

#	Program:	/corina/corina34_cracker 3.40 0067  02.08.2006

@<TRIPOS>MOLECULE
ASD03090777
  60   63    0    0    0
SMALL
NO_CHARGES


@<TRIPOS>ATOM
   1 C1            -0.5319     1.0764    -0.9975 C.3     
   2 C2            -0.6197    -0.4252    -1.2773 C.3     
   3 C3             0.9367     1.4870    -0.8732 C.3     
   4 N4            -1.1541     1.8155    -2.0988 N.am    
   5 C5            -1.6513     3.0500    -1.8859 C.2     
   6 C6            -2.2913     3.8103    -3.0187 C.3     
   7 O7            -1.5837     3.5489    -0.7825 O.2     
   8 N8            -2.7485     5.1151    -2.5344 N.am    
   9 C9            -1.9112     6.1849    -2.5881 C.2     
  10 N10           -2.2418     7.3716    -2.1793 N.2     
  11 C11           -3.4691     7.6295    -1.6605 C.ar    
  12 C12           -4.4067     6.5772    -1.5653 C.ar    
  13 C13           -4.0025     5.2462    -2.0424 C.2     
  14 C14           -0.5280     5.9824    -3.1510 C.3     
  15 C15            0.2359     7.3076    -3.1160 C.3     
  16 O16           -4.7630     4.2972    -1.9884 O.2     
  17 C17           -3.8237     8.9068    -1.2204 C.ar    
  18 C18           -5.0683     9.1279    -0.7037 C.ar    
  19 C19           -5.9979     8.0926    -0.6073 C.ar    
  20 C20           -5.6727     6.8169    -1.0361 C.ar    
  21 N21           -7.2652     8.3443    -0.0742 N.3     
  22 C22           -7.7419     7.1992     0.7141 C.3     
  23 C23           -8.4966     7.6794     1.9447 C.3     
  24 C24           -9.8702     8.2362     1.6289 C.3     
  25 N25          -10.2019     8.0828     0.2051 N.3     
  26 C26           -9.5599     9.1492    -0.5785 C.3     
  27 C27           -8.2246     8.6784    -1.1336 C.3     
  28 C28          -10.0106     6.7311    -0.2755 C.3     
  29 C29           -8.5606     6.2858    -0.1798 C.3     
  30 H30           -1.0527     1.3038    -0.0674 H       
  31 H31           -0.1568    -0.9751    -0.4579 H       
  32 H32           -1.6660    -0.7177    -1.3659 H       
  33 H33           -0.0989    -0.6526    -2.2075 H       
  34 H34            1.4575     1.2597    -1.8033 H       
  35 H35            0.9993     2.5568    -0.6739 H       
  36 H36            1.3996     0.9371    -0.0538 H       
  37 H37           -1.2081     1.4165    -2.9813 H       
  38 H38           -1.5632     3.9538    -3.8171 H       
  39 H39           -3.1422     3.2459    -3.4002 H       
  40 H40            0.0026     5.2413    -2.5532 H       
  41 H41           -0.6023     5.6329    -4.1807 H       
  42 H42            1.2363     7.1611    -3.5231 H       
  43 H43           -0.2947     8.0487    -3.7138 H       
  44 H44            0.3102     7.6571    -2.0862 H       
  45 H45           -3.1144     9.7183    -1.2883 H       
  46 H46           -5.3362    10.1177    -0.3647 H       
  47 H47           -6.3932     6.0159    -0.9611 H       
  48 H48           -6.8716     6.6351     1.0495 H       
  49 H49           -8.6088     6.8428     2.6344 H       
  50 H50           -7.9089     8.4559     2.4342 H       
  51 H51          -10.6139     7.7090     2.2263 H       
  52 H52           -9.8931     9.2948     1.8875 H       
  53 H53          -10.2130     9.4306    -1.4046 H       
  54 H54           -9.3971    10.0165     0.0612 H       
  55 H55           -7.8028     9.4678    -1.7557 H       
  56 H56           -8.3904     7.7955    -1.7510 H       
  57 H57          -10.6278     6.0550     0.3161 H       
  58 H58          -10.3288     6.6778    -1.3166 H       
  59 H59           -8.1241     6.2834    -1.1786 H       
  60 H60           -8.5267     5.2733     0.2223 H       
@<TRIPOS>BOND
   1    1    2 1
   2    1    3 1
   3    1    4 1
   4    1   30 1
   5    2   31 1
   6    2   32 1
   7    2   33 1
   8    3   34 1
   9    3   35 1
  10    3   36 1
  11    4    5 am
  12    4   37 1
  13    5    6 1
  14    5    7 2
  15    6    8 1
  16    6   38 1
  17    6   39 1
  18    8    9 1
  19    8   13 am
  20    9   10 2
  21    9   14 1
  22   10   11 1
  23   11   12 ar
  24   11   17 ar
  25   12   13 1
  26   12   20 ar
  27   13   16 2
  28   14   15 1
  29   14   40 1
  30   14   41 1
  31   15   42 1
  32   15   43 1
  33   15   44 1
  34   17   18 ar
  35   17   45 1
  36   18   19 ar
  37   18   46 1
  38   19   20 ar
  39   19   21 1
  40   20   47 1
  41   21   22 1
  42   21   27 1
  43   22   23 1
  44   22   29 1
  45   22   48 1
  46   23   24 1
  47   23   49 1
  48   23   50 1
  49   24   25 1
  50   24   51 1
  51   24   52 1
  52   25   26 1
  53   25   28 1
  54   26   27 1
  55   26   53 1
  56   26   54 1
  57   27   55 1
  58   27   56 1
  59   28   29 1
  60   28   57 1
  61   28   58 1
  62   29   59 1
  63   29   60 1

#	End of record

