#	Name: ASD01870481
#	Creating user name:	WinNT
#	Creation time:	15. 06. 2019 19:39

#	Modifying user name:	WinNT
#	Modification time:	15. 06. 2019 19:39

#	Program:	/corina/corina34_cracker 3.40 0067  02.08.2006

@<TRIPOS>MOLECULE
ASD01870481
  45   48    0    0    0
SMALL
NO_CHARGES


@<TRIPOS>ATOM
   1 C1             0.3177     1.2543    -0.6690 C.ar    
   2 C2             0.3423    -0.1285    -0.5744 C.ar    
   3 C3             1.5254    -0.7917    -0.3079 C.ar    
   4 C4             2.7038    -0.0833    -0.1314 C.ar    
   5 C5             2.6945     1.2992    -0.2231 C.ar    
   6 C6             1.4878     1.9756    -0.4950 C.ar    
   7 C7             3.7269     2.3493    -0.0960 C.2     
   8 N8             3.1449     3.5475    -0.2836 N.am    
   9 C9             1.8281     3.4137    -0.5238 C.2     
  10 O10            1.0493     4.3224    -0.7304 O.2     
  11 O11            4.9036     2.1617     0.1389 O.2     
  12 C12            3.8224     4.7756    -0.2351 C.ar    
  13 C13            4.3803     5.3067    -1.3900 C.ar    
  14 C14            5.0464     6.5149    -1.3427 C.ar    
  15 C15            5.1591     7.1996    -0.1396 C.ar    
  16 C16            4.6014     6.6691     1.0160 C.ar    
  17 C17            3.9298     5.4626     0.9676 C.ar    
  18 Cl18           3.2266     4.8019     2.4108 Cl      
  19 N19            5.8358     8.4249    -0.0919 N.am    
  20 C20            5.4394     9.3804     0.7719 C.2     
  21 C21            6.2432    10.6471     0.9152 C.3     
  22 O22            4.4357     9.2209     1.4341 O.2     
  23 N23            5.3626    11.8199     0.7626 N.3     
  24 C24            5.3907    12.5965     2.0203 C.3     
  25 C25            6.7397    12.2248     2.6848 C.3     
  26 C26            6.8609    10.7199     2.3275 C.3     
  27 C27            3.9925    11.4094     0.4278 C.3     
  28 H28           -0.6088     1.7669    -0.8818 H       
  29 H29           -0.5694    -0.6915    -0.7095 H       
  30 H30            1.5316    -1.8693    -0.2362 H       
  31 H31            3.6252    -0.6068     0.0769 H       
  32 H32            4.2935     4.7743    -2.3256 H       
  33 H33            5.4803     6.9277    -2.2415 H       
  34 H34            4.6894     7.2012     1.9517 H       
  35 H35            6.5897     8.5858    -0.6807 H       
  36 H36            7.0303    10.6738     0.1617 H       
  37 H37            5.3541    13.6649     1.8075 H       
  38 H38            4.5589    12.3080     2.6630 H       
  39 H39            7.5597    12.7965     2.2502 H       
  40 H40            6.6956    12.3674     3.7645 H       
  41 H41            6.2916    10.1102     3.0291 H       
  42 H42            7.9062    10.4116     2.3073 H       
  43 H43            3.5372    10.9245     1.2913 H       
  44 H44            3.4071    12.2870     0.1533 H       
  45 H45            4.0165    10.7121    -0.4097 H       
@<TRIPOS>BOND
   1    1    2 ar
   2    1    6 ar
   3    1   28 1
   4    2    3 ar
   5    2   29 1
   6    3    4 ar
   7    3   30 1
   8    4    5 ar
   9    4   31 1
  10    5    7 1
  11    5    6 ar
  12    6    9 1
  13    7    8 am
  14    7   11 2
  15    8    9 am
  16    8   12 1
  17    9   10 2
  18   12   13 ar
  19   12   17 ar
  20   13   14 ar
  21   13   32 1
  22   14   15 ar
  23   14   33 1
  24   15   16 ar
  25   15   19 1
  26   16   17 ar
  27   16   34 1
  28   17   18 1
  29   19   20 am
  30   19   35 1
  31   20   22 2
  32   20   21 1
  33   21   23 1
  34   21   26 1
  35   21   36 1
  36   23   24 1
  37   23   27 1
  38   24   25 1
  39   24   37 1
  40   24   38 1
  41   25   26 1
  42   25   39 1
  43   25   40 1
  44   26   41 1
  45   26   42 1
  46   27   43 1
  47   27   44 1
  48   27   45 1

#	End of record

