#	Name: ASD05490095
#	Creating user name:	WinNT
#	Creation time:	15. 06. 2019 21:01

#	Modifying user name:	WinNT
#	Modification time:	15. 06. 2019 21:01

#	Program:	/corina/corina34_cracker 3.40 0067  02.08.2006

@<TRIPOS>MOLECULE
ASD05490095
  65   69    0    0    0
SMALL
NO_CHARGES


@<TRIPOS>ATOM
   1 N1            -0.0178     1.4608     0.0101 N.am    
   2 O2             4.5863     2.8161    -0.0262 O.3     
   3 N3             2.8511     4.3368    -0.0011 N.ar    
   4 C4             1.5540     4.6376     0.0125 C.ar    
   5 C5             3.2565     3.0770    -0.0125 C.ar    
   6 N6             2.4054     2.0644    -0.0098 N.ar    
   7 C7             1.0946     2.2826     0.0039 C.ar    
   8 C8             0.6266     3.5971     0.0154 C.ar    
   9 N9             1.1342     5.9598     0.0241 N.pl3   
  10 C10           -1.1223     2.2312     0.0189 C.2     
  11 N11           -0.7663     3.5310     0.0284 N.am    
  12 C12            5.4681     3.9405    -0.0273 C.3     
  13 C13            6.9178     3.4518    -0.0435 C.3     
  14 O14            7.1762     2.7676    -1.2712 O.3     
  15 C15            8.5098     2.2679    -1.3886 C.3     
  16 O16           -2.2665     1.8171     0.0260 O.2     
  17 C17            0.0021    -0.0041     0.0020 C.3     
  18 C18            0.0225    -0.5140     1.4200 C.ar    
  19 C19           -1.1528    -0.5674     2.1513 C.ar    
  20 C20           -1.1384    -1.0350     3.4524 C.ar    
  21 C21            0.0604    -1.4522     4.0260 C.ar    
  22 C22            1.2391    -1.3958     3.2846 C.ar    
  23 C23            1.2135    -0.9324     1.9849 C.ar    
  24 C24            0.0824    -1.9546     5.4221 C.ar    
  25 C25            1.2815    -2.3720     5.9962 C.ar    
  26 C26           -1.0949    -2.0053     6.1657 C.ar    
  27 C27           -1.0685    -2.4730     7.4639 C.ar    
  28 C28            0.1237    -2.8910     8.0271 C.ar    
  29 C29            1.2963    -2.8379     7.2953 C.ar    
  30 C30            0.1463    -3.4003     9.4452 C.3     
  31 N31           -0.0808    -4.8516     9.4480 N.3     
  32 C32            0.1686    -5.4229    10.7842 C.3     
  33 C33           -1.1214    -6.1498    11.2187 C.3     
  34 C34           -1.8333    -6.4346     9.8701 C.3     
  35 C35           -1.4686    -5.1715     9.0509 C.3     
  36 F36           -2.3141    -0.1618     1.5928 F       
  37 H37            1.7881     6.6762     0.0223 H       
  38 H38            0.1868     6.1678     0.0340 H       
  39 H39           -1.3727     4.2880     0.0359 H       
  40 H40            5.2799     4.5490    -0.9119 H       
  41 H41            5.2961     4.5380     0.8679 H       
  42 H42            7.5900     4.3052     0.0452 H       
  43 H43            7.0814     2.7720     0.7927 H       
  44 H44            8.6252     1.7622    -2.3473 H       
  45 H45            9.2150     3.0968    -1.3278 H       
  46 H46            8.7064     1.5636    -0.5803 H       
  47 H47           -0.8878    -0.3767    -0.5053 H       
  48 H48            0.8920    -0.3525    -0.5222 H       
  49 H49           -2.0545    -1.0764     4.0228 H       
  50 H50            2.1709    -1.7182     3.7254 H       
  51 H51            2.1270    -0.8887     1.4104 H       
  52 H52            2.1975    -2.3313     5.4255 H       
  53 H53           -2.0262    -1.6788     5.7271 H       
  54 H54           -1.9804    -2.5124     8.0413 H       
  55 H55            2.2244    -3.1655     7.7398 H       
  56 H56            1.1158    -3.1834     9.8938 H       
  57 H57           -0.6383    -2.9086    10.0204 H       
  58 H58            0.9953    -6.1317    10.7359 H       
  59 H59            0.4012    -4.6261    11.4906 H       
  60 H60           -0.8843    -7.0809    11.7335 H       
  61 H61           -1.7336    -5.5048    11.8490 H       
  62 H62           -1.4343    -7.3335     9.4001 H       
  63 H63           -2.9118    -6.5133    10.0068 H       
  64 H64           -2.1356    -4.3480     9.3060 H       
  65 H65           -1.5182    -5.3843     7.9830 H       
@<TRIPOS>BOND
   1    1   17 1
   2    1    7 1
   3    1   10 am
   4    2   12 1
   5    2    5 1
   6    3    4 ar
   7    3    5 ar
   8    4    9 1
   9    4    8 ar
  10    5    6 ar
  11    6    7 ar
  12    7    8 ar
  13    8   11 1
  14    9   37 1
  15    9   38 1
  16   10   11 am
  17   10   16 2
  18   11   39 1
  19   12   13 1
  20   12   40 1
  21   12   41 1
  22   13   14 1
  23   13   42 1
  24   13   43 1
  25   14   15 1
  26   15   44 1
  27   15   45 1
  28   15   46 1
  29   17   18 1
  30   17   47 1
  31   17   48 1
  32   18   19 ar
  33   18   23 ar
  34   19   20 ar
  35   19   36 1
  36   20   21 ar
  37   20   49 1
  38   21   22 ar
  39   21   24 1
  40   22   23 ar
  41   22   50 1
  42   23   51 1
  43   24   25 ar
  44   24   26 ar
  45   25   29 ar
  46   25   52 1
  47   26   27 ar
  48   26   53 1
  49   27   28 ar
  50   27   54 1
  51   28   29 ar
  52   28   30 1
  53   29   55 1
  54   30   31 1
  55   30   56 1
  56   30   57 1
  57   31   32 1
  58   31   35 1
  59   32   33 1
  60   32   58 1
  61   32   59 1
  62   33   34 1
  63   33   60 1
  64   33   61 1
  65   34   35 1
  66   34   62 1
  67   34   63 1
  68   35   64 1
  69   35   65 1

#	End of record

