#	Name: ASD01915503
#	Creating user name:	WinNT
#	Creation time:	15. 06. 2019 20:05

#	Modifying user name:	WinNT
#	Modification time:	15. 06. 2019 20:05

#	Program:	/corina/corina34_cracker 3.40 0067  02.08.2006

@<TRIPOS>MOLECULE
ASD01915503
  35   37    0    0    0
SMALL
NO_CHARGES


@<TRIPOS>ATOM
   1 C1            -0.0117     1.3706    -0.0324 C.ar    
   2 C2            -0.0050     0.0165     0.2645 C.ar    
   3 C3             1.1873    -0.6357     0.5225 C.ar    
   4 C4             2.3792     0.0575     0.4861 C.ar    
   5 C5             2.3818     1.4229     0.1877 C.ar    
   6 C6             1.1744     2.0771    -0.0723 C.ar    
   7 C7             3.6158     2.1484     0.1488 C.1     
   8 C8             4.6276     2.7431     0.1170 C.1     
   9 C9             5.8616     3.4685     0.0781 C.ar    
  10 C10            7.0642     2.8009     0.3351 C.ar    
  11 N11            5.8513     4.7688    -0.2073 N.ar    
  12 C12            6.9609     5.4726    -0.2536 C.ar    
  13 C13            8.1962     4.8703    -0.0018 C.ar    
  14 C14            8.2405     3.5001     0.2964 C.ar    
  15 C15            9.4395     5.6642    -0.0547 C.2     
  16 O16            9.3843     6.8726    -0.1773 O.2     
  17 N17           10.6358     5.0497     0.0327 N.am    
  18 C18           12.0457     5.4630    -0.0309 C.3     
  19 C19           12.3808     4.0508    -0.5305 C.3     
  20 C20           11.1057     3.6717     0.2404 C.3     
  21 O21           12.2831     3.8920    -1.9473 O.3     
  22 F22           -1.1799     1.9990    -0.2886 F       
  23 H23           -0.9351    -0.5317     0.2948 H       
  24 H24            1.1848    -1.6907     0.7535 H       
  25 H25            3.3088    -0.4538     0.6883 H       
  26 H26            1.1689     3.1320    -0.3039 H       
  27 H27            7.0644     1.7450     0.5619 H       
  28 H28            6.9171     6.5258    -0.4886 H       
  29 H29            9.1819     3.0077     0.4908 H       
  30 H30           12.2370     6.2415    -0.7695 H       
  31 H31           12.4755     5.6917     0.9443 H       
  32 H32           13.2974     3.6346    -0.1126 H       
  33 H33           11.2876     3.4282     1.2872 H       
  34 H34           10.4960     2.9241    -0.2670 H       
  35 H35           12.4948     3.0014    -2.2588 H       
@<TRIPOS>BOND
   1    1    2 ar
   2    1    6 ar
   3    1   22 1
   4    2    3 ar
   5    2   23 1
   6    3    4 ar
   7    3   24 1
   8    4    5 ar
   9    4   25 1
  10    5    6 ar
  11    5    7 1
  12    6   26 1
  13    7    8 3
  14    8    9 1
  15    9   11 ar
  16    9   10 ar
  17   10   14 ar
  18   10   27 1
  19   11   12 ar
  20   12   13 ar
  21   12   28 1
  22   13   14 ar
  23   13   15 1
  24   14   29 1
  25   15   16 2
  26   15   17 am
  27   17   18 1
  28   17   20 1
  29   18   19 1
  30   18   30 1
  31   18   31 1
  32   19   21 1
  33   19   20 1
  34   19   32 1
  35   20   33 1
  36   20   34 1
  37   21   35 1

#	End of record

