#	Name: ASD05790127
#	Creating user name:	WinNT
#	Creation time:	15. 06. 2019 21:03

#	Modifying user name:	WinNT
#	Modification time:	15. 06. 2019 21:03

#	Program:	/corina/corina34_cracker 3.40 0067  02.08.2006

@<TRIPOS>MOLECULE
ASD05790127
  42   45    0    0    0
SMALL
NO_CHARGES


@<TRIPOS>ATOM
   1 C1            -0.0068     1.3664    -0.2055 C.ar    
   2 C2             0.0068    -0.0117     0.0208 C.ar    
   3 C3             1.2203    -0.6695     0.2332 C.ar    
   4 C4             2.3997     0.0424     0.2189 C.ar    
   5 C5             2.3827     1.4145    -0.0068 C.ar    
   6 C6             1.1761     2.0725    -0.2186 C.ar    
   7 N7             3.5799     2.1330    -0.0207 N.am    
   8 C8            -1.2599    -0.7719     0.0360 C.2     
   9 O9            -2.4855    -0.2535    -0.1547 O.3     
  10 N10           -1.3721    -2.0636     0.2320 N.2     
  11 C11           -2.6789    -2.3953     0.1749 C.2     
  12 C12           -3.3786    -1.2584    -0.0680 C.2     
  13 C13           -3.2468    -3.7559     0.3431 C.ar    
  14 C14           -2.4054    -4.8397     0.5863 C.ar    
  15 C15           -2.9390    -6.1029     0.7424 C.ar    
  16 C16           -4.3063    -6.2942     0.6574 C.ar    
  17 C17           -5.1462    -5.2219     0.4162 C.ar    
  18 C18           -4.6239    -3.9535     0.2642 C.ar    
  19 C19            4.6961     1.5731    -0.5276 C.2     
  20 O20            4.6820     0.4142    -0.8947 O.2     
  21 C21            5.9367     2.3676    -0.6373 C.ar    
  22 C22            5.9566     3.6987    -0.2168 C.ar    
  23 C23            7.0976     1.7886    -1.1572 C.ar    
  24 C24            8.2534     2.5379    -1.2566 C.ar    
  25 C25            8.2632     3.8576    -0.8425 C.ar    
  26 C26            7.1183     4.4349    -0.3220 C.ar    
  27 Cl27           7.0868     0.1320    -1.6761 Cl      
  28 H28           -0.9432     1.8773    -0.3745 H       
  29 H29            1.2341    -1.7350     0.4088 H       
  30 H30            3.3384    -0.4657     0.3834 H       
  31 H31            1.1663     3.1381    -0.3939 H       
  32 H32            3.6082     3.0352     0.3346 H       
  33 H33           -4.4503    -1.1749    -0.1726 H       
  34 H34           -1.3376    -4.6915     0.6521 H       
  35 H35           -2.2878    -6.9436     0.9309 H       
  36 H36           -4.7196    -7.2845     0.7795 H       
  37 H37           -6.2130    -5.3770     0.3504 H       
  38 H38           -5.2806    -3.1169     0.0762 H       
  39 H39            5.0642     4.1511     0.1897 H       
  40 H40            9.1516     2.0924    -1.6580 H       
  41 H41            9.1698     4.4391    -0.9221 H       
  42 H42            7.1333     5.4660    -0.0011 H       
@<TRIPOS>BOND
   1    1    2 ar
   2    1    6 ar
   3    1   28 1
   4    2    3 ar
   5    2    8 1
   6    3    4 ar
   7    3   29 1
   8    4    5 ar
   9    4   30 1
  10    5    6 ar
  11    5    7 1
  12    6   31 1
  13    7   19 am
  14    7   32 1
  15    8    9 1
  16    8   10 2
  17    9   12 1
  18   10   11 1
  19   11   12 2
  20   11   13 1
  21   12   33 1
  22   13   14 ar
  23   13   18 ar
  24   14   15 ar
  25   14   34 1
  26   15   16 ar
  27   15   35 1
  28   16   17 ar
  29   16   36 1
  30   17   18 ar
  31   17   37 1
  32   18   38 1
  33   19   20 2
  34   19   21 1
  35   21   22 ar
  36   21   23 ar
  37   22   26 ar
  38   22   39 1
  39   23   24 ar
  40   23   27 1
  41   24   25 ar
  42   24   40 1
  43   25   26 ar
  44   25   41 1
  45   26   42 1

#	End of record

