#	Name: ASD03092248
#	Creating user name:	WinNT
#	Creation time:	15. 06. 2019 20:32

#	Modifying user name:	WinNT
#	Modification time:	15. 06. 2019 20:32

#	Program:	/corina/corina34_cracker 3.40 0067  02.08.2006

@<TRIPOS>MOLECULE
ASD03092248
  43   45    0    0    0
SMALL
NO_CHARGES


@<TRIPOS>ATOM
   1 C1            -0.0173     1.4248     0.0099 C.3     
   2 O2             0.0021    -0.0041     0.0020 O.3     
   3 C3             0.6049    -0.6063    -1.0542 C.ar    
   4 C4             1.1722     0.1659    -2.0612 C.ar    
   5 C5             1.7844    -0.4413    -3.1348 C.ar    
   6 C6             1.8354    -1.8357    -3.2109 C.ar    
   7 C7             1.2643    -2.6083    -2.1962 C.ar    
   8 C8             0.6585    -1.9935    -1.1233 C.ar    
   9 C9             2.4902    -2.4906    -4.3601 C.2     
  10 O10            2.9862    -1.8168    -5.2423 O.2     
  11 N11            2.5383    -3.8356    -4.4317 N.am    
  12 C12            3.1883    -4.4857    -5.5724 C.3     
  13 H13            3.4653    -3.8257    -6.3944 H       
  14 C14            4.1074    -5.6732    -5.2792 C.3     
  15 H15            4.2286    -5.9707    -4.2376 H       
  16 C16            5.3266    -5.8408    -6.1491 C.ar    
  17 C17            5.4902    -5.0478    -7.2695 C.ar    
  18 C18            6.6082    -5.2010    -8.0677 C.ar    
  19 C19            7.5635    -6.1482    -7.7451 C.ar    
  20 Cl20           8.9682    -6.3409    -8.7468 Cl      
  21 C21            7.3992    -6.9416    -6.6236 C.ar    
  22 C22            6.2836    -6.7835    -5.8231 C.ar    
  23 C23            2.7397    -5.9050    -5.9264 C.3     
  24 C24            1.6468    -6.5368    -5.0620 C.3     
  25 C25            2.7150    -6.2894    -7.4071 C.3     
  26 H26            1.0053     1.8021     0.0021 H       
  27 H27           -0.5445     1.7859    -0.8732 H       
  28 H28           -0.5275     1.7763     0.9067 H       
  29 H29            1.1324     1.2435    -2.0017 H       
  30 H30            2.2243     0.1593    -3.9172 H       
  31 H31            1.3013    -3.6863    -2.2516 H       
  32 H32            0.2207    -2.5899    -0.3365 H       
  33 H33            2.1426    -4.3732    -3.7279 H       
  34 H34            4.7442    -4.3086    -7.5215 H       
  35 H35            6.7357    -4.5817    -8.9432 H       
  36 H36            8.1445    -7.6814    -6.3714 H       
  37 H37            6.1576    -7.3995    -4.9449 H       
  38 H38            0.7343    -6.6412    -5.6490 H       
  39 H39            1.9747    -7.5192    -4.7222 H       
  40 H40            1.4526    -5.8999    -4.1989 H       
  41 H41            3.1820    -5.4995    -7.9954 H       
  42 H42            3.2628    -7.2209    -7.5499 H       
  43 H43            1.6827    -6.4217    -7.7310 H       
@<TRIPOS>BOND
   1    1    2 1
   2    1   26 1
   3    1   27 1
   4    1   28 1
   5    2    3 1
   6    3    8 ar
   7    3    4 ar
   8    4    5 ar
   9    4   29 1
  10    5    6 ar
  11    5   30 1
  12    6    7 ar
  13    6    9 1
  14    7    8 ar
  15    7   31 1
  16    8   32 1
  17    9   10 2
  18    9   11 am
  19   11   12 1
  20   11   33 1
  21   12   13 1
  22   12   23 1
  23   12   14 1
  24   14   15 1
  25   14   16 1
  26   14   23 1
  27   16   22 ar
  28   16   17 ar
  29   17   18 ar
  30   17   34 1
  31   18   19 ar
  32   18   35 1
  33   19   20 1
  34   19   21 ar
  35   21   22 ar
  36   21   36 1
  37   22   37 1
  38   23   24 1
  39   23   25 1
  40   24   38 1
  41   24   39 1
  42   24   40 1
  43   25   41 1
  44   25   42 1
  45   25   43 1

#	End of record

