#	Name: ASD00844272
#	Creating user name:	WinNT
#	Creation time:	15. 06. 2019 18:49

#	Modifying user name:	WinNT
#	Modification time:	15. 06. 2019 18:49

#	Program:	/corina/corina34_cracker 3.40 0067  02.08.2006

@<TRIPOS>MOLECULE
ASD00844272
  90   95    0    0    0
SMALL
NO_CHARGES


@<TRIPOS>ATOM
   1 C1            -0.0147     1.3804     0.0256 C.ar    
   2 C2             0.0030    -0.0065     0.0109 C.ar    
   3 C3             1.2147    -0.6824    -0.0067 C.ar    
   4 C4             2.3998     0.0270    -0.0095 C.ar    
   5 C5             2.3794     1.4097     0.0056 C.ar    
   6 C6             1.1735     2.0854     0.0227 C.ar    
   7 C7             1.2376    -2.1891    -0.0222 C.3     
   8 C8             0.4953    -2.7187    -1.2306 C.2     
   9 N9             2.6177    -2.6805    -0.0113 N.am    
  10 C10            3.4640    -2.3347    -1.0016 C.2     
  11 N11            4.7595    -2.7012    -0.9396 N.am    
  12 O12            3.0588    -1.6921    -1.9509 O.2     
  13 C13            5.6738    -2.4348    -2.0604 C.3     
  14 C14            6.9203    -1.7300    -1.5148 C.3     
  15 N15            7.4924    -2.5291    -0.4230 N.3     
  16 C16            6.5577    -2.6362     0.7053 C.3     
  17 C17            5.2978    -3.3727     0.2531 C.3     
  18 N18            8.7693    -1.9836     0.0082 N.3     
  19 C19            9.3416    -2.7830     1.1005 C.3     
  20 C20           10.7178    -2.2249     1.4707 C.3     
  21 N21           10.5818    -0.8166     1.8679 N.3     
  22 C22           10.0095    -0.0172     0.7757 C.3     
  23 C23            8.6333    -0.5753     0.4055 C.3     
  24 C24           11.8719    -0.2656     2.3036 C.3     
  25 O25            0.7758    -2.5174    -2.3932 O.2     
  26 N26           -0.5319    -3.4542    -0.7738 N.am    
  27 C27            0.4655    -2.7430     1.1537 C.ar    
  28 C28           -0.5801    -3.4904     0.6169 C.ar    
  29 C29            0.6282    -2.6278     2.5110 C.ar    
  30 C30           -0.2662    -3.2683     3.3760 C.ar    
  31 C31           -1.3197    -4.0213     2.8437 C.ar    
  32 C32           -1.4717    -4.1305     1.4780 C.ar    
  33 F33           -2.1885    -4.6434     3.6704 F       
  34 C34           -0.9814    -5.8429    -2.0647 C.ar    
  35 C35            0.1985    -5.9982    -2.7773 C.ar    
  36 C36           -1.6540    -6.9540    -1.5937 C.ar    
  37 C37           -1.1518    -8.2198    -1.8317 C.ar    
  38 C38            0.0243    -8.3774    -2.5418 C.ar    
  39 C39            0.7002    -7.2698    -3.0152 C.ar    
  40 H40            0.4147    -9.3673    -2.7264 H       
  41 O41            0.8616    -4.9068    -3.2421 O.3     
  42 C42            2.0700    -5.1422    -3.9677 C.3     
  43 C43            2.6698    -3.8051    -4.4071 C.3     
  44 S44           -1.6181    -4.2295    -1.7543 S.o2    
  45 O45           -2.7993    -4.4056    -0.9841 O.2     
  46 O46           -1.5966    -3.5433    -2.9984 O.2     
  47 O47           -1.1644    -0.7022     0.0142 O.3     
  48 C48           -2.3734     0.0593     0.0331 C.3     
  49 C49           -3.5738    -0.8894     0.0340 C.3     
  50 F50           -3.5411    -1.6839    -1.1170 F       
  51 F51           -3.5204    -1.7079     1.1674 F       
  52 C52           -0.1050    -3.1547     4.7944 C.1     
  53 N53            0.0230    -3.0646     5.9196 N.1     
  54 H54           -0.9566     1.9088     0.0348 H       
  55 H55            3.3432    -0.4986    -0.0232 H       
  56 H56            3.3072     1.9625     0.0041 H       
  57 H57            1.1602     3.1652     0.0345 H       
  58 H58            2.9224    -3.2548     0.7086 H       
  59 H59            5.9612    -3.3756    -2.5300 H       
  60 H60            5.1807    -1.7934    -2.7908 H       
  61 H61            7.6562    -1.6236    -2.3119 H       
  62 H62            6.6456    -0.7444    -1.1390 H       
  63 H63            7.0306    -3.1870     1.5183 H       
  64 H64            6.2881    -1.6380     1.0502 H       
  65 H65            4.5563    -3.3541     1.0518 H       
  66 H66            5.5462    -4.4044     0.0043 H       
  67 H67            8.6844    -2.7356     1.9688 H       
  68 H68            9.4441    -3.8191     0.7778 H       
  69 H69           11.1317    -2.7984     2.3001 H       
  70 H70           11.3831    -2.2974     0.6103 H       
  71 H71            9.9070     1.0188     1.0984 H       
  72 H72           10.6667    -0.0647    -0.0926 H       
  73 H73            8.2194    -0.0018    -0.4239 H       
  74 H74            7.9681    -0.5028     1.2659 H       
  75 H75           12.5895    -0.3302     1.4856 H       
  76 H76           11.7427     0.7776     2.5919 H       
  77 H77           12.2410    -0.8352     3.1565 H       
  78 H78            1.4445    -2.0447     2.9108 H       
  79 H79           -2.2860    -4.7127     1.0727 H       
  80 H80           -2.5727    -6.8336    -1.0388 H       
  81 H81           -1.6786    -9.0871    -1.4620 H       
  82 H82            1.6183    -7.3933    -3.5704 H       
  83 H83            2.7808    -5.6670    -3.3294 H       
  84 H84            1.8536    -5.7497    -4.8465 H       
  85 H85            1.9590    -3.2803    -5.0455 H       
  86 H86            2.8862    -3.1976    -3.5283 H       
  87 H87            3.5915    -3.9846    -4.9606 H       
  88 H88           -2.3989     0.6784     0.9299 H       
  89 H89           -2.4150     0.6970    -0.8499 H       
  90 H90           -4.4960    -0.3085     0.0485 H       
@<TRIPOS>BOND
   1    1    2 ar
   2    1    6 ar
   3    1   54 1
   4    2    3 ar
   5    2   47 1
   6    3    4 ar
   7    3    7 1
   8    4    5 ar
   9    4   55 1
  10    5    6 ar
  11    5   56 1
  12    6   57 1
  13    7    8 1
  14    7    9 1
  15    7   27 1
  16    8   25 2
  17    8   26 am
  18    9   10 am
  19    9   58 1
  20   10   11 am
  21   10   12 2
  22   11   13 1
  23   11   17 1
  24   13   14 1
  25   13   59 1
  26   13   60 1
  27   14   15 1
  28   14   61 1
  29   14   62 1
  30   15   16 1
  31   15   18 1
  32   16   17 1
  33   16   63 1
  34   16   64 1
  35   17   65 1
  36   17   66 1
  37   18   19 1
  38   18   23 1
  39   19   20 1
  40   19   67 1
  41   19   68 1
  42   20   21 1
  43   20   69 1
  44   20   70 1
  45   21   22 1
  46   21   24 1
  47   22   23 1
  48   22   71 1
  49   22   72 1
  50   23   73 1
  51   23   74 1
  52   24   75 1
  53   24   76 1
  54   24   77 1
  55   26   44 am
  56   26   28 1
  57   27   28 ar
  58   27   29 ar
  59   28   32 ar
  60   29   30 ar
  61   29   78 1
  62   30   31 ar
  63   30   52 1
  64   31   32 ar
  65   31   33 1
  66   32   79 1
  67   34   35 ar
  68   34   36 ar
  69   34   44 1
  70   35   41 1
  71   35   39 ar
  72   36   37 ar
  73   36   80 1
  74   37   38 ar
  75   37   81 1
  76   38   39 ar
  77   38   40 1
  78   39   82 1
  79   41   42 1
  80   42   43 1
  81   42   83 1
  82   42   84 1
  83   43   85 1
  84   43   86 1
  85   43   87 1
  86   44   45 2
  87   44   46 2
  88   47   48 1
  89   48   49 1
  90   48   88 1
  91   48   89 1
  92   49   50 1
  93   49   51 1
  94   49   90 1
  95   52   53 3

#	End of record

