#	Name: ASD01918316
#	Creating user name:	WinNT
#	Creation time:	15. 06. 2019 20:11

#	Modifying user name:	WinNT
#	Modification time:	15. 06. 2019 20:11

#	Program:	/corina/corina34_cracker 3.40 0067  02.08.2006

@<TRIPOS>MOLECULE
ASD01918316
  42   45    0    0    0
SMALL
NO_CHARGES


@<TRIPOS>ATOM
   1 F1             0.0021    -0.0041     0.0020 F       
   2 C2            -0.0162     1.3468     0.0094 C.ar    
   3 C3            -1.2238     2.0229     0.0304 C.ar    
   4 C4            -1.2431     3.4052     0.0375 C.ar    
   5 C5            -0.0572     4.1148     0.0237 C.ar    
   6 C6            -0.0812     5.6216     0.0310 C.3     
   7 H7             0.7333     6.0186    -0.5749 H       
   8 O8            -1.3644     6.1143    -0.4522 O.3     
   9 C9            -1.9621     6.8226     0.5125 C.2     
  10 O10           -3.0489     7.3477     0.3730 O.2     
  11 N11           -1.2531     6.8994     1.6470 N.am    
  12 C12            0.0082     6.1563     1.4734 C.3     
  13 H13            0.0689     5.3321     2.1842 H       
  14 C14            1.1925     7.0758     1.6246 C.ar    
  15 C15            1.1144     8.3908     1.2025 C.ar    
  16 N16            2.1417     9.2094     1.3279 N.ar    
  17 C17            3.2822     8.8184     1.8566 C.ar    
  18 C18            3.4428     7.5055     2.3073 C.ar    
  19 C19            2.3671     6.6149     2.1923 C.ar    
  20 C20            4.6832     7.0791     2.8820 C.1     
  21 C21            5.7001     6.7296     3.3532 C.1     
  22 C22            6.9405     6.3032     3.9279 C.ar    
  23 C23            8.0038     7.2018     4.0488 C.ar    
  24 C24            9.1954     6.7841     4.6037 C.ar    
  25 C25            9.3393     5.4789     5.0403 C.ar    
  26 C26            8.2908     4.5834     4.9234 C.ar    
  27 C27            7.0915     4.9882     4.3758 C.ar    
  28 C28            1.1528     3.4422     0.0037 C.ar    
  29 F29            2.3118     4.1363    -0.0088 F       
  30 C30            1.1744     2.0566     0.0019 C.ar    
  31 F31            2.3542     1.3985    -0.0129 F       
  32 H32           -2.1516     1.4702     0.0408 H       
  33 H33           -2.1862     3.9313     0.0534 H       
  34 H34           -1.5245     7.3689     2.4512 H       
  35 H35            0.1972     8.7535     0.7626 H       
  36 H36            4.1006     9.5180     1.9423 H       
  37 H37            2.4538     5.5942     2.5344 H       
  38 H38            7.8930     8.2206     3.7082 H       
  39 H39           10.0182     7.4773     4.6975 H       
  40 H40           10.2747     5.1574     5.4741 H       
  41 H41            8.4105     3.5661     5.2659 H       
  42 H42            6.2725     4.2896     4.2895 H       
@<TRIPOS>BOND
   1    1    2 1
   2    2   30 ar
   3    2    3 ar
   4    3    4 ar
   5    3   32 1
   6    4    5 ar
   7    4   33 1
   8    5    6 1
   9    5   28 ar
  10    6    7 1
  11    6   12 1
  12    6    8 1
  13    8    9 1
  14    9   10 2
  15    9   11 am
  16   11   12 1
  17   11   34 1
  18   12   13 1
  19   12   14 1
  20   14   19 ar
  21   14   15 ar
  22   15   16 ar
  23   15   35 1
  24   16   17 ar
  25   17   18 ar
  26   17   36 1
  27   18   19 ar
  28   18   20 1
  29   19   37 1
  30   20   21 3
  31   21   22 1
  32   22   27 ar
  33   22   23 ar
  34   23   24 ar
  35   23   38 1
  36   24   25 ar
  37   24   39 1
  38   25   26 ar
  39   25   40 1
  40   26   27 ar
  41   26   41 1
  42   27   42 1
  43   28   29 1
  44   28   30 ar
  45   30   31 1

#	End of record

