#	Name: ASD03331087
#	Creating user name:	WinNT
#	Creation time:	15. 06. 2019 20:38

#	Modifying user name:	WinNT
#	Modification time:	15. 06. 2019 20:38

#	Program:	/corina/corina34_cracker 3.40 0067  02.08.2006

@<TRIPOS>MOLECULE
ASD03331087
  61   64    0    0    0
SMALL
NO_CHARGES


@<TRIPOS>ATOM
   1 N1            -0.1134     1.3882    -0.1365 N.pl3   
   2 C2            -0.0245     0.0335    -0.2169 C.2     
   3 C3             1.2490    -0.7542    -0.3812 C.3     
   4 N4             2.2499    -0.2577     0.5760 N.3     
   5 C5             3.0298     0.8421     0.0052 C.3     
   6 C6             2.1746     1.6877    -0.9342 C.3     
   7 C7             1.0181     2.3195    -0.1548 C.3     
   8 C8            -1.4361     1.7050    -0.0254 C.2     
   9 N9            -2.1340     0.5933    -0.0190 N.2     
  10 C10           -1.2917    -0.4573    -0.1329 C.2     
  11 C11           -1.6760    -1.8795    -0.1615 C.2     
  12 O12           -0.8214    -2.7383    -0.2687 O.2     
  13 N13           -2.9744    -2.2287    -0.0688 N.am    
  14 C14            3.1272    -1.3443     1.0314 C.3     
  15 C15           -2.8736    -4.2753    -1.4041 C.3     
  16 C16           -3.3565    -3.6427    -0.0973 C.3     
  17 C17           -2.7157    -4.3681     1.0877 C.3     
  18 C18           -4.8562    -3.7598    -0.0066 C.ar    
  19 C19           -5.6566    -2.7119    -0.4225 C.ar    
  20 C20           -7.0316    -2.8167    -0.3403 C.ar    
  21 C21           -7.6092    -3.9747     0.1599 C.ar    
  22 C22           -6.8039    -5.0247     0.5765 C.ar    
  23 C23           -5.4295    -4.9171     0.4870 C.ar    
  24 O24           -8.9616    -4.0800     0.2421 O.3     
  25 C25           -9.4865    -5.3010     0.7672 C.3     
  26 C26           -1.9905     3.0723     0.0720 C.ar    
  27 C27           -3.0781     3.4465    -0.7222 C.ar    
  28 C28           -3.5920     4.7254    -0.6263 C.ar    
  29 C29           -3.0308     5.6354     0.2544 C.ar    
  30 C30           -1.9512     5.2687     1.0442 C.ar    
  31 C31           -1.4336     3.9920     0.9613 C.ar    
  32 F32           -3.5367     6.8849     0.3442 F       
  33 F33           -3.6253     2.5597    -1.5821 F       
  34 Cl34          -1.2537     6.4162     2.1444 Cl      
  35 H35            1.0524    -1.8089    -0.1886 H       
  36 H36            1.6244    -0.6321    -1.3971 H       
  37 H37            3.4050     1.4716     0.8120 H       
  38 H38            3.8735     0.4323    -0.5501 H       
  39 H39            2.7882     2.4743    -1.3733 H       
  40 H40            1.7747     1.0560    -1.7274 H       
  41 H41            0.7174     3.2489    -0.6385 H       
  42 H42            1.3368     2.5258     0.8669 H       
  43 H43           -3.6559    -1.5438     0.0167 H       
  44 H44            3.5925    -1.8213     0.1688 H       
  45 H45            3.9008    -0.9379     1.6830 H       
  46 H46            2.5395    -2.0801     1.5803 H       
  47 H47           -1.7889    -4.1906    -1.4697 H       
  48 H48           -3.1579    -5.3273    -1.4252 H       
  49 H49           -3.3301    -3.7585    -2.2483 H       
  50 H50           -3.0597    -3.9175     2.0187 H       
  51 H51           -3.0000    -5.4202     1.0665 H       
  52 H52           -1.6310    -4.2834     1.0221 H       
  53 H53           -5.2065    -1.8105    -0.8115 H       
  54 H54           -7.6564    -1.9978    -0.6650 H       
  55 H55           -7.2511    -5.9271     0.9663 H       
  56 H56           -4.8022    -5.7361     0.8068 H       
  57 H57          -10.5754    -5.2535     0.7780 H       
  58 H58           -9.1653    -6.1335     0.1411 H       
  59 H59           -9.1190    -5.4474     1.7829 H       
  60 H60           -4.4323     5.0162    -1.2393 H       
  61 H61           -0.5961     3.7066     1.5805 H       
@<TRIPOS>BOND
   1    1    2 1
   2    1    7 1
   3    1    8 1
   4    2    3 1
   5    2   10 2
   6    3    4 1
   7    3   35 1
   8    3   36 1
   9    4    5 1
  10    4   14 1
  11    5    6 1
  12    5   37 1
  13    5   38 1
  14    6    7 1
  15    6   39 1
  16    6   40 1
  17    7   41 1
  18    7   42 1
  19    8    9 2
  20    8   26 1
  21    9   10 1
  22   10   11 1
  23   11   12 2
  24   11   13 am
  25   13   16 1
  26   13   43 1
  27   14   44 1
  28   14   45 1
  29   14   46 1
  30   15   16 1
  31   15   47 1
  32   15   48 1
  33   15   49 1
  34   16   17 1
  35   16   18 1
  36   17   50 1
  37   17   51 1
  38   17   52 1
  39   18   19 ar
  40   18   23 ar
  41   19   20 ar
  42   19   53 1
  43   20   21 ar
  44   20   54 1
  45   21   22 ar
  46   21   24 1
  47   22   23 ar
  48   22   55 1
  49   23   56 1
  50   24   25 1
  51   25   57 1
  52   25   58 1
  53   25   59 1
  54   26   27 ar
  55   26   31 ar
  56   27   28 ar
  57   27   33 1
  58   28   29 ar
  59   28   60 1
  60   29   30 ar
  61   29   32 1
  62   30   31 ar
  63   30   34 1
  64   31   61 1

#	End of record

