#	Name: ASD02390010
#	Creating user name:	WinNT
#	Creation time:	15. 06. 2019 20:20

#	Modifying user name:	WinNT
#	Modification time:	15. 06. 2019 20:20

#	Program:	/corina/corina34_cracker 3.40 0067  02.08.2006

@<TRIPOS>MOLECULE
ASD02390010
  42   44    0    0    0
SMALL
NO_CHARGES


@<TRIPOS>ATOM
   1 C1            -0.0164     1.3582     0.0095 C.2     
   2 C2             0.0021    -0.0041     0.0020 C.2     
   3 C3            -1.3303    -0.6165     0.0223 C.2     
   4 C4            -2.2884     0.3030     0.0049 C.2     
   5 S5            -1.6165     1.9319     0.0352 S.3     
   6 C6             1.2397    -0.7856    -0.0244 C.2     
   7 O7             1.7891    -1.1391    -1.2045 O.3     
   8 O8             1.7726    -1.1163     1.0180 O.2     
   9 N9             1.1104     2.1627     0.0031 N.am    
  10 C10            0.9806     3.5042     0.0115 C.2     
  11 O11           -0.1270     4.0084     0.0248 O.2     
  12 C12            2.1735     4.3560     0.0047 C.2     
  13 C13            2.1846     5.7218     0.0119 C.2     
  14 C14            3.5321     6.1144     0.0012 C.2     
  15 C15            4.2752     4.9857    -0.0120 C.2     
  16 O16            3.4531     3.9283    -0.0039 O.3     
  17 C17            3.0163    -1.9137    -1.1546 C.3     
  18 C18           -1.4434    -2.1323     0.1395 C.3     
  19 C19           -2.8851    -2.6072     0.2681 C.3     
  20 C20           -3.5849    -2.6427    -1.0787 C.3     
  21 C21           -3.2162    -1.4802    -1.9788 C.3     
  22 C22           -4.1123    -0.3185    -1.5394 C.3     
  23 C23           -3.7791     0.0380    -0.0874 C.3     
  24 H24            1.9931     1.7609    -0.0075 H       
  25 H25            1.3234     6.3734     0.0233 H       
  26 H26            3.9050     7.1280     0.0025 H       
  27 H27            5.3543     4.9433    -0.0229 H       
  28 H28            3.3506    -2.1304    -2.1692 H       
  29 H29            3.7849    -1.3435    -0.6329 H       
  30 H30            2.8346    -2.8485    -0.6244 H       
  31 H31           -1.0007    -2.5877    -0.7463 H       
  32 H32           -0.8856    -2.4599     1.0169 H       
  33 H33           -2.8928    -3.6082     0.6994 H       
  34 H34           -3.4245    -1.9313     0.9315 H       
  35 H35           -3.3236    -3.5725    -1.5840 H       
  36 H36           -4.6622    -2.6287    -0.9133 H       
  37 H37           -2.1667    -1.2180    -1.8445 H       
  38 H38           -3.4120    -1.7337    -3.0207 H       
  39 H39           -3.9307     0.5453    -2.1788 H       
  40 H40           -5.1583    -0.6162    -1.6118 H       
  41 H41           -4.0461    -0.7926     0.5659 H       
  42 H42           -4.3303     0.9308     0.2079 H       
@<TRIPOS>BOND
   1    1    2 2
   2    1    9 1
   3    1    5 1
   4    2    3 1
   5    2    6 1
   6    3    4 2
   7    3   18 1
   8    4    5 1
   9    4   23 1
  10    6    7 1
  11    6    8 2
  12    7   17 1
  13    9   10 am
  14    9   24 1
  15   10   11 2
  16   10   12 1
  17   12   13 2
  18   12   16 1
  19   13   14 1
  20   13   25 1
  21   14   15 2
  22   14   26 1
  23   15   16 1
  24   15   27 1
  25   17   28 1
  26   17   29 1
  27   17   30 1
  28   18   19 1
  29   18   31 1
  30   18   32 1
  31   19   20 1
  32   19   33 1
  33   19   34 1
  34   20   21 1
  35   20   35 1
  36   20   36 1
  37   21   22 1
  38   21   37 1
  39   21   38 1
  40   22   23 1
  41   22   39 1
  42   22   40 1
  43   23   41 1
  44   23   42 1

#	End of record

