#	Name: ASD00311338
#	Creating user name:	WinNT
#	Creation time:	15. 06. 2019 18:34

#	Modifying user name:	WinNT
#	Modification time:	15. 06. 2019 18:34

#	Program:	/corina/corina34_cracker 3.40 0067  02.08.2006

@<TRIPOS>MOLECULE
ASD00311338
  37   40    0    0    0
SMALL
NO_CHARGES


@<TRIPOS>ATOM
   1 C1            -0.0167     1.3779     0.0096 C.2     
   2 C2             0.0021    -0.0041     0.0020 C.2     
   3 C3             1.2588    -0.6766    -0.0140 C.2     
   4 C4             2.4315     0.0675    -0.0217 C.2     
   5 C5             2.3574     1.4754    -0.0134 C.2     
   6 N6             1.1649     2.0906     0.0022 N.am    
   7 C7            -1.3431    -0.5749     0.0123 C.2     
   8 C8            -2.3222     0.3256     0.0268 C.2     
   9 S9            -1.6794     1.9560     0.0358 S.3     
  10 O10            3.3823     2.1375    -0.0200 O.2     
  11 C11            3.7477    -0.6118    -0.0379 C.ar    
  12 C12            4.5930    -0.4743    -1.1387 C.ar    
  13 C13            5.8181    -1.1092    -1.1477 C.ar    
  14 C14            6.2085    -1.8807    -0.0677 C.ar    
  15 C15            5.3743    -2.0209     1.0271 C.ar    
  16 C16            4.1491    -1.3867     1.0501 C.ar    
  17 O17            1.3089    -2.0290    -0.0214 O.3     
  18 C18           -1.5956    -2.0354     0.0065 C.ar    
  19 C19           -1.2004    -2.8207     1.0944 C.ar    
  20 C20           -1.4395    -4.1843     1.0819 C.ar    
  21 C21           -2.0669    -4.7684    -0.0034 C.ar    
  22 C22           -2.4599    -3.9946    -1.0829 C.ar    
  23 C23           -2.2325    -2.6308    -1.0800 C.ar    
  24 O24           -0.5830    -2.2468     2.1608 O.3     
  25 F25           -3.0722    -4.5732    -2.1391 F       
  26 H26            1.1327     3.0600     0.0073 H       
  27 H27           -3.3748     0.0838     0.0354 H       
  28 H28            4.2892     0.1275    -1.9825 H       
  29 H29            6.4734    -1.0038    -1.9996 H       
  30 H30            7.1681    -2.3760    -0.0795 H       
  31 H31            5.6846    -2.6245     1.8671 H       
  32 H32            3.5005    -1.4935     1.9070 H       
  33 H33            2.2062    -2.3894    -0.0322 H       
  34 H34           -1.1354    -4.7927     1.9207 H       
  35 H35           -2.2509    -5.8326    -0.0094 H       
  36 H36           -2.5441    -2.0288    -1.9208 H       
  37 H37           -1.1894    -1.9463     2.8515 H       
@<TRIPOS>BOND
   1    1    2 2
   2    1    6 1
   3    1    9 1
   4    2    3 1
   5    2    7 1
   6    3    4 2
   7    3   17 1
   8    4    5 1
   9    4   11 1
  10    5    6 am
  11    5   10 2
  12    6   26 1
  13    7    8 2
  14    7   18 1
  15    8    9 1
  16    8   27 1
  17   11   12 ar
  18   11   16 ar
  19   12   13 ar
  20   12   28 1
  21   13   14 ar
  22   13   29 1
  23   14   15 ar
  24   14   30 1
  25   15   16 ar
  26   15   31 1
  27   16   32 1
  28   17   33 1
  29   18   19 ar
  30   18   23 ar
  31   19   20 ar
  32   19   24 1
  33   20   21 ar
  34   20   34 1
  35   21   22 ar
  36   21   35 1
  37   22   23 ar
  38   22   25 1
  39   23   36 1
  40   24   37 1

#	End of record

