#	Name: ASD01920028
#	Creating user name:	WinNT
#	Creation time:	15. 06. 2019 20:11

#	Modifying user name:	WinNT
#	Modification time:	15. 06. 2019 20:11

#	Program:	/corina/corina34_cracker 3.40 0067  02.08.2006

@<TRIPOS>MOLECULE
ASD01920028
  29   31    0    0    0
SMALL
NO_CHARGES


@<TRIPOS>ATOM
   1 C1            -2.7529    -3.2221     3.2163 C.ar    
   2 C2            -3.9189    -2.4781     3.2009 C.ar    
   3 C3            -4.1923    -1.6426     2.1354 C.ar    
   4 C4            -3.2960    -1.5497     1.0802 C.ar    
   5 C5            -2.1267    -2.2967     1.0981 C.ar    
   6 C6            -1.8552    -3.1268     2.1683 C.ar    
   7 I7            -2.3419    -4.4887     4.8336 I       
   8 O8            -3.5630    -0.7288     0.0308 O.3     
   9 C9            -4.7721    -0.1044    -0.0005 C.2     
  10 C10           -4.8478     1.2347     0.1327 C.2     
  11 C11           -5.9651    -0.8609    -0.1802 C.2     
  12 C12           -7.2368    -0.1180    -0.2038 C.ar    
  13 C13           -7.1958     1.2790    -0.0491 C.ar    
  14 O14           -6.0099     1.9005     0.1099 O.3     
  15 C15           -8.4580    -0.7718    -0.3752 C.ar    
  16 C16           -9.6164    -0.0490    -0.3921 C.ar    
  17 C17           -9.5855     1.3359    -0.2395 C.ar    
  18 C18           -8.3823     1.9991    -0.0682 C.ar    
  19 O19           -5.9351    -2.0733    -0.3095 O.2     
  20 O20          -10.7454     2.0409    -0.2589 O.3     
  21 H21           -4.6162    -2.5507     4.0224 H       
  22 H22           -5.1032    -1.0624     2.1235 H       
  23 H23           -1.4276    -2.2261     0.2780 H       
  24 H24           -0.9451    -3.7082     2.1829 H       
  25 H25           -3.9334     1.7942     0.2637 H       
  26 H26           -8.4866    -1.8448    -0.4942 H       
  27 H27          -10.5621    -0.5535    -0.5250 H       
  28 H28           -8.3669     3.0726     0.0490 H       
  29 H29          -11.1538     2.1503     0.6107 H       
@<TRIPOS>BOND
   1    1    2 ar
   2    1    7 1
   3    1    6 ar
   4    2    3 ar
   5    2   21 1
   6    3    4 ar
   7    3   22 1
   8    4    5 ar
   9    4    8 1
  10    5    6 ar
  11    5   23 1
  12    6   24 1
  13    8    9 1
  14    9   10 2
  15    9   11 1
  16   10   14 1
  17   10   25 1
  18   11   12 1
  19   11   19 2
  20   12   13 ar
  21   12   15 ar
  22   13   14 1
  23   13   18 ar
  24   15   16 ar
  25   15   26 1
  26   16   17 ar
  27   16   27 1
  28   17   18 ar
  29   17   20 1
  30   18   28 1
  31   20   29 1

#	End of record

