#	Name: ASD01911436
#	Creating user name:	WinNT
#	Creation time:	15. 06. 2019 19:57

#	Modifying user name:	WinNT
#	Modification time:	15. 06. 2019 19:57

#	Program:	/corina/corina34_cracker 3.40 0067  02.08.2006

@<TRIPOS>MOLECULE
ASD01911436
  31   32    0    0    0
SMALL
NO_CHARGES


@<TRIPOS>ATOM
   1 N1            -0.0169     1.3965     0.0097 N.2     
   2 N2             0.0021    -0.0041     0.0020 N.pl3   
   3 C3             1.2284     1.8226     0.0001 C.2     
   4 C4             2.0722     0.6950    -0.0140 C.2     
   5 C5             1.2909    -0.4070    -0.0125 C.2     
   6 C6             1.7727    -1.8348    -0.0243 C.3     
   7 C7             1.6661     3.2408     0.0031 C.ar    
   8 C8            -1.1724    -0.8798     0.0090 C.3     
   9 C9            -1.5888    -1.1729    -1.4094 C.2     
  10 O10           -2.6491    -1.9606    -1.6484 O.3     
  11 O11           -0.9682    -0.6990    -2.3314 O.2     
  12 C12            0.7208     4.2639     0.0177 C.ar    
  13 C13            3.0238     3.5533    -0.0029 C.ar    
  14 C14            3.4254     4.8748    -0.0001 C.ar    
  15 C15            2.4812     5.8873     0.0091 C.ar    
  16 C16            1.1327     5.5816     0.0204 C.ar    
  17 C17            2.0688    -2.2850     1.4077 C.3     
  18 Cl18           5.1166     5.2668    -0.0076 Cl      
  19 H19            3.1521     0.7089    -0.0245 H       
  20 H20            1.0023    -2.4747    -0.4544 H       
  21 H21            2.6808    -1.9069    -0.6229 H       
  22 H22           -0.9267    -1.8130     0.5158 H       
  23 H23           -1.9906    -0.3861     0.5332 H       
  24 H24           -2.8778    -2.1198    -2.5744 H       
  25 H25           -0.3328     4.0267     0.0265 H       
  26 H26            3.7607     2.7638    -0.0093 H       
  27 H27            2.7989     6.9195     0.0116 H       
  28 H28            0.4001     6.3751     0.0272 H       
  29 H29            2.8392    -1.6451     1.8378 H       
  30 H30            1.1607    -2.2129     2.0063 H       
  31 H31            2.4173    -3.3178     1.3991 H       
@<TRIPOS>BOND
   1    1    2 1
   2    1    3 2
   3    2    8 1
   4    2    5 1
   5    3    4 1
   6    3    7 1
   7    4    5 2
   8    4   19 1
   9    5    6 1
  10    6   17 1
  11    6   20 1
  12    6   21 1
  13    7   12 ar
  14    7   13 ar
  15    8    9 1
  16    8   22 1
  17    8   23 1
  18    9   10 1
  19    9   11 2
  20   10   24 1
  21   12   16 ar
  22   12   25 1
  23   13   14 ar
  24   13   26 1
  25   14   15 ar
  26   14   18 1
  27   15   16 ar
  28   15   27 1
  29   16   28 1
  30   17   29 1
  31   17   30 1
  32   17   31 1

#	End of record

