#	Name: ASD02440027
#	Creating user name:	WinNT
#	Creation time:	15. 06. 2019 20:21

#	Modifying user name:	WinNT
#	Modification time:	15. 06. 2019 20:21

#	Program:	/corina/corina34_cracker 3.40 0067  02.08.2006

@<TRIPOS>MOLECULE
ASD02440027
  60   64    0    0    0
SMALL
NO_CHARGES


@<TRIPOS>ATOM
   1 C1            -0.2176     1.3234    -0.2496 C.ar    
   2 C2            -0.0387    -0.0509    -0.2835 C.ar    
   3 C3             1.2204    -0.5924    -0.4351 C.ar    
   4 C4             0.8668     2.1671    -0.3677 C.ar    
   5 C5             2.1409     1.6316    -0.5211 C.ar    
   6 C6             2.3248     0.2416    -0.5557 C.ar    
   7 O7             3.6443     0.0070    -0.7114 O.3     
   8 C8             4.3377     1.1488    -0.7812 C.2     
   9 C9             3.4909     2.2111    -0.6726 C.2     
  10 C10            3.8470     3.6364    -0.7000 C.2     
  11 C11            3.9753     4.3416    -1.9934 C.2     
  12 O12            4.0362     4.2362     0.3414 O.2     
  13 C13            5.8317     1.2459    -0.9533 C.3     
  14 C14            6.4960     1.3733     0.4191 C.3     
  15 S15           -1.4339    -1.1161    -0.1308 S.o2    
  16 N16           -2.0745    -1.3051    -1.6461 N.am    
  17 O17           -0.9279    -2.3875     0.2524 O.2     
  18 O18           -2.4014    -0.4038     0.6280 O.2     
  19 C19            3.6215     3.6435    -3.2297 C.2     
  20 C20            3.7136     4.2229    -4.4442 C.2     
  21 C21            4.1631     5.5529    -4.5873 C.2     
  22 C22            4.5429     6.3253    -3.3429 C.3     
  23 C23            4.4120     5.6207    -2.0106 C.2     
  24 O24            4.2436     6.0661    -5.6851 O.2     
  25 C25           -2.5909    -0.2014    -2.3287 C.ar    
  26 C26           -2.2762    -0.0007    -3.6667 C.ar    
  27 C27           -2.7889     1.0914    -4.3388 C.ar    
  28 C28           -3.6145     1.9848    -3.6812 C.ar    
  29 C29           -3.9298     1.7881    -2.3492 C.ar    
  30 C30           -3.4248     0.6951    -1.6726 C.ar    
  31 S31           -4.2659     3.3772    -4.5423 S.o2    
  32 N32           -5.7092     2.9112    -5.2071 N.am    
  33 O33           -4.5749     4.3512    -3.5547 O.2     
  34 O34           -3.3848     3.6250    -5.6292 O.2     
  35 C35           -6.7719     2.5683    -4.3859 C.2     
  36 N36           -7.9408     2.1909    -4.8021 N.2     
  37 C37           -8.8388     1.9007    -3.8775 C.2     
  38 C38           -8.4083     2.0395    -2.6233 C.2     
  39 S39           -6.7305     2.5741    -2.6768 S.3     
  40 Br40           6.4113     6.9039    -3.5416 Br      
  41 Br41           3.2325     3.2348    -5.9831 Br      
  42 H42           -1.2096     1.7346    -0.1348 H       
  43 H43            1.3478    -1.6646    -0.4598 H       
  44 H44            0.7273     3.2377    -0.3416 H       
  45 H45            6.1989     0.3494    -1.4529 H       
  46 H46            6.0718     2.1218    -1.5559 H       
  47 H47            7.5669     1.5306     0.2912 H       
  48 H48            6.0657     2.2201     0.9538 H       
  49 H49            6.3285     0.4600     0.9900 H       
  50 H50           -2.0912    -2.1824    -2.0596 H       
  51 H51            3.2728     2.6233    -3.1673 H       
  52 H52            3.9235     7.2214    -3.3049 H       
  53 H53            4.6660     6.1283    -1.0918 H       
  54 H54           -1.6312    -0.6979    -4.1808 H       
  55 H55           -2.5443     1.2482    -5.3790 H       
  56 H56           -4.5749     2.4877    -1.8385 H       
  57 H57           -3.6750     0.5397    -0.6335 H       
  58 H58           -5.8110     2.8782    -6.1712 H       
  59 H59           -9.8408     1.5775    -4.1182 H       
  60 H60           -8.9861     1.8527    -1.7303 H       
@<TRIPOS>BOND
   1    1    2 ar
   2    1    4 ar
   3    1   42 1
   4    2    3 ar
   5    2   15 1
   6    3    6 ar
   7    3   43 1
   8    4    5 ar
   9    4   44 1
  10    5    6 ar
  11    5    9 1
  12    6    7 1
  13    7    8 1
  14    8    9 2
  15    8   13 1
  16    9   10 1
  17   10   11 1
  18   10   12 2
  19   11   19 1
  20   11   23 2
  21   13   14 1
  22   13   45 1
  23   13   46 1
  24   14   47 1
  25   14   48 1
  26   14   49 1
  27   15   16 am
  28   15   17 2
  29   15   18 2
  30   16   25 1
  31   16   50 1
  32   19   20 2
  33   19   51 1
  34   20   21 1
  35   20   41 1
  36   21   22 1
  37   21   24 2
  38   22   23 1
  39   22   40 1
  40   22   52 1
  41   23   53 1
  42   25   26 ar
  43   25   30 ar
  44   26   27 ar
  45   26   54 1
  46   27   28 ar
  47   27   55 1
  48   28   29 ar
  49   28   31 1
  50   29   30 ar
  51   29   56 1
  52   30   57 1
  53   31   32 am
  54   31   33 2
  55   31   34 2
  56   32   35 1
  57   32   58 1
  58   35   36 2
  59   35   39 1
  60   36   37 1
  61   37   38 2
  62   37   59 1
  63   38   39 1
  64   38   60 1

#	End of record

