#	Name: ASD01230600
#	Creating user name:	WinNT
#	Creation time:	15. 06. 2019 19:14

#	Modifying user name:	WinNT
#	Modification time:	15. 06. 2019 19:14

#	Program:	/corina/corina34_cracker 3.40 0067  02.08.2006

@<TRIPOS>MOLECULE
ASD01230600
  42   45    0    0    0
SMALL
NO_CHARGES


@<TRIPOS>ATOM
   1 S1            -1.2012     1.9704     0.4505 S.o2    
   2 N2            -0.8233     0.3647     0.3135 N.am    
   3 C3             0.3153    -0.0407    -0.1849 C.2     
   4 N4             1.3140     0.7692    -0.6428 N.pl3   
   5 C5             1.2338     2.2282    -0.6964 C.3     
   6 C6             0.4355     2.7665     0.4953 C.3     
   7 C7             0.5283    -1.5058    -0.2520 C.2     
   8 N8             1.6623    -1.9737    -0.7113 N.2     
   9 C9             2.6307    -1.1469    -1.1190 C.2     
  10 C10            2.4805     0.1856    -1.0933 C.2     
  11 N11           -0.4661    -2.3755     0.1690 N.pl3   
  12 C12           -0.6295    -3.8344     0.2566 C.3     
  13 C13           -2.1432    -3.6186     0.1207 C.3     
  14 C14           -1.8190    -2.2449     0.7307 C.3     
  15 O15           -2.6092    -3.5698    -1.2292 O.3     
  16 C16           -3.9247    -3.8398    -1.4379 C.ar    
  17 C17           -4.4666    -3.7147    -2.7089 C.ar    
  18 C18           -5.8040    -3.9897    -2.9184 C.ar    
  19 C19           -6.6025    -4.3893    -1.8627 C.ar    
  20 C20           -6.0650    -4.5143    -0.5950 C.ar    
  21 C21           -4.7267    -4.2465    -0.3814 C.ar    
  22 C22            3.9270    -1.7283    -1.6216 C.3     
  23 O23           -1.8805     2.2820    -0.7581 O.2     
  24 O24           -1.8493     2.0787     1.7105 O.2     
  25 H25            2.2408     2.6449    -0.6724 H       
  26 H26            0.7433     2.5277    -1.6225 H       
  27 H27            0.3249     3.8475     0.4102 H       
  28 H28            0.9444     2.5167     1.4263 H       
  29 H29            3.2898     0.8153    -1.4323 H       
  30 H30           -0.1905    -4.3716    -0.5841 H       
  31 H31           -0.3348    -4.2471     1.2215 H       
  32 H32           -2.7456    -4.2600     0.7640 H       
  33 H33           -1.8378    -2.2385     1.8205 H       
  34 H34           -2.3933    -1.4279     0.2939 H       
  35 H35           -3.8434    -3.4023    -3.5338 H       
  36 H36           -6.2264    -3.8921    -3.9076 H       
  37 H37           -7.6479    -4.6039    -2.0286 H       
  38 H38           -6.6909    -4.8260     0.2281 H       
  39 H39           -4.3061    -4.3489     0.6080 H       
  40 H40            3.8795    -2.8163    -1.5748 H       
  41 H41            4.0897    -1.4157    -2.6531 H       
  42 H42            4.7494    -1.3735    -1.0004 H       
@<TRIPOS>BOND
   1    1    2 am
   2    1    6 1
   3    1   23 2
   4    1   24 2
   5    2    3 2
   6    3    4 1
   7    3    7 1
   8    4    5 1
   9    4   10 1
  10    5    6 1
  11    5   25 1
  12    5   26 1
  13    6   27 1
  14    6   28 1
  15    7    8 2
  16    7   11 1
  17    8    9 1
  18    9   10 2
  19    9   22 1
  20   10   29 1
  21   11   12 1
  22   11   14 1
  23   12   13 1
  24   12   30 1
  25   12   31 1
  26   13   14 1
  27   13   15 1
  28   13   32 1
  29   14   33 1
  30   14   34 1
  31   15   16 1
  32   16   17 ar
  33   16   21 ar
  34   17   18 ar
  35   17   35 1
  36   18   19 ar
  37   18   36 1
  38   19   20 ar
  39   19   37 1
  40   20   21 ar
  41   20   38 1
  42   21   39 1
  43   22   40 1
  44   22   41 1
  45   22   42 1

#	End of record

