#	Name: ASD00070092
#	Creating user name:	WinNT
#	Creation time:	15. 06. 2019 18:30

#	Modifying user name:	WinNT
#	Modification time:	15. 06. 2019 18:30

#	Program:	/corina/corina34_cracker 3.40 0067  02.08.2006

@<TRIPOS>MOLECULE
ASD00070092
  80   84    0    0    0
SMALL
NO_CHARGES


@<TRIPOS>ATOM
   1 C1            -0.0180     1.4742     0.0101 C.2     
   2 C2             0.0021    -0.0041     0.0020 C.ar    
   3 C3             1.2184    -0.6885    -0.0133 C.ar    
   4 C4             1.2301    -2.0680    -0.0203 C.ar    
   5 C5             0.0396    -2.7730    -0.0127 C.ar    
   6 C6            -1.1695    -2.1007     0.0024 C.ar    
   7 C7            -1.1952    -0.7214     0.0154 C.ar    
   8 O8             1.0263     2.0963     0.0035 O.2     
   9 N9            -1.1942     2.1322     0.0193 N.am    
  10 C10           -1.2141     3.5970     0.0274 C.3     
  11 C11           -2.5311     4.0925    -0.5733 C.3     
  12 C12           -2.5518     5.6223    -0.5649 C.3     
  13 C13           -2.4262     6.1262     0.8743 C.3     
  14 C14           -1.1092     5.6307     1.4750 C.3     
  15 C15           -1.0885     4.1009     1.4665 C.3     
  16 C16           -2.4470     7.6560     0.8827 C.3     
  17 C17           -2.4471     8.1581     2.3279 C.3     
  18 N18           -2.4670     9.6270     2.3360 N.3     
  19 C19           -2.7058    10.1426     3.6901 C.3     
  20 C20           -2.8648    11.6638     3.6374 C.3     
  21 C21           -1.5940    12.2850     3.0513 C.3     
  22 C22           -1.3415    11.6953     1.6609 C.3     
  23 C23           -1.2266    10.1732     1.7709 C.3     
  24 O24           -0.1296    16.6453     4.2827 O.3     
  25 C25            0.9563    15.7460     4.5636 C.3     
  26 C26            0.2719    14.3591     4.5230 C.3     
  27 C27           -0.9147    14.6221     3.6163 C.ar    
  28 C28           -1.0646    16.0007     3.5321 C.ar    
  29 C29           -1.7677    13.7779     2.9412 C.ar    
  30 C30           -2.7843    14.3008     2.1613 C.ar    
  31 C31           -2.9388    15.6711     2.0635 C.ar    
  32 C32           -2.0871    16.5188     2.7415 C.ar    
  33 C33            0.0601    -4.2798    -0.0215 C.3     
  34 C34            0.8003    -4.7870     1.2177 C.3     
  35 C35           -1.3753    -4.8094    -0.0105 C.3     
  36 C36            0.7759    -4.7728    -1.2806 C.3     
  37 H37            2.1484    -0.1393    -0.0199 H       
  38 H38            2.1706    -2.5988    -0.0321 H       
  39 H39           -2.0953    -2.6569     0.0083 H       
  40 H40           -2.1396    -0.1978     0.0318 H       
  41 H41           -2.0276     1.6358     0.0206 H       
  42 H42           -0.3801     3.9750    -0.5640 H       
  43 H43           -2.6206     3.7336    -1.5986 H       
  44 H44           -3.3651     3.7146     0.0180 H       
  45 H45           -1.7178     6.0003    -1.1563 H       
  46 H46           -3.4901     5.9753    -0.9929 H       
  47 H47           -3.2602     5.7483     1.4656 H       
  48 H48           -0.2752     6.0086     0.8836 H       
  49 H49           -1.0197     5.9896     2.5003 H       
  50 H50           -1.9225     3.7229     2.0579 H       
  51 H51           -0.1502     3.7479     1.8945 H       
  52 H52           -1.5645     8.0342     0.3667 H       
  53 H53           -3.3442     8.0100     0.3750 H       
  54 H54           -3.3296     7.7799     2.8439 H       
  55 H55           -1.5498     7.8041     2.8356 H       
  56 H56           -3.6146     9.6962     4.0937 H       
  57 H57           -1.8610     9.8877     4.3300 H       
  58 H58           -3.7180    11.9189     3.0088 H       
  59 H59           -3.0265    12.0478     4.6446 H       
  60 H60           -0.7471    12.0628     3.7005 H       
  61 H61           -2.1706    11.9509     1.0012 H       
  62 H62           -0.4148    12.1019     1.2560 H       
  63 H63           -0.3887     9.9182     2.4198 H       
  64 H64           -1.0610     9.7490     0.7806 H       
  65 H65            1.7266    15.8191     3.7959 H       
  66 H66            1.3740    15.9417     5.5512 H       
  67 H67            0.9348    13.6101     4.0898 H       
  68 H68           -0.0569    14.0576     5.5175 H       
  69 H69           -3.4544    13.6407     1.6306 H       
  70 H70           -3.7300    16.0802     1.4528 H       
  71 H71           -2.2149    17.5881     2.6600 H       
  72 H72            0.2903    -4.4358     2.1148 H       
  73 H73            0.8151    -5.8769     1.2114 H       
  74 H74            1.8229    -4.4098     1.2099 H       
  75 H75           -1.9027    -4.4480    -0.8933 H       
  76 H76           -1.3605    -5.8993    -0.0168 H       
  77 H77           -1.8853    -4.4582     0.8865 H       
  78 H78            1.7985    -4.3956    -1.2884 H       
  79 H79            0.7907    -5.8627    -1.2869 H       
  80 H80            0.2486    -4.4115    -2.1634 H       
@<TRIPOS>BOND
   1    1    2 1
   2    1    8 2
   3    1    9 am
   4    2    3 ar
   5    2    7 ar
   6    3    4 ar
   7    3   37 1
   8    4    5 ar
   9    4   38 1
  10    5    6 ar
  11    5   33 1
  12    6    7 ar
  13    6   39 1
  14    7   40 1
  15    9   10 1
  16    9   41 1
  17   10   11 1
  18   10   15 1
  19   10   42 1
  20   11   12 1
  21   11   43 1
  22   11   44 1
  23   12   13 1
  24   12   45 1
  25   12   46 1
  26   13   14 1
  27   13   16 1
  28   13   47 1
  29   14   15 1
  30   14   48 1
  31   14   49 1
  32   15   50 1
  33   15   51 1
  34   16   17 1
  35   16   52 1
  36   16   53 1
  37   17   18 1
  38   17   54 1
  39   17   55 1
  40   18   19 1
  41   18   23 1
  42   19   20 1
  43   19   56 1
  44   19   57 1
  45   20   21 1
  46   20   58 1
  47   20   59 1
  48   21   22 1
  49   21   29 1
  50   21   60 1
  51   22   23 1
  52   22   61 1
  53   22   62 1
  54   23   63 1
  55   23   64 1
  56   24   25 1
  57   24   28 1
  58   25   26 1
  59   25   65 1
  60   25   66 1
  61   26   27 1
  62   26   67 1
  63   26   68 1
  64   27   28 ar
  65   27   29 ar
  66   28   32 ar
  67   29   30 ar
  68   30   31 ar
  69   30   69 1
  70   31   32 ar
  71   31   70 1
  72   32   71 1
  73   33   34 1
  74   33   36 1
  75   33   35 1
  76   34   72 1
  77   34   73 1
  78   34   74 1
  79   35   75 1
  80   35   76 1
  81   35   77 1
  82   36   78 1
  83   36   79 1
  84   36   80 1

#	End of record

