#	Name: ASD01890310
#	Creating user name:	WinNT
#	Creation time:	15. 06. 2019 19:50

#	Modifying user name:	WinNT
#	Modification time:	15. 06. 2019 19:50

#	Program:	/corina/corina34_cracker 3.40 0067  02.08.2006

@<TRIPOS>MOLECULE
ASD01890310
  29   30    0    0    0
SMALL
NO_CHARGES


@<TRIPOS>ATOM
   1 C1            -0.0184     1.5028     0.0103 C.2     
   2 C2             0.0021    -0.0041     0.0020 C.3     
   3 C3             1.4513    -0.4944    -0.0145 C.3     
   4 O4             1.0230     2.1230     0.0037 O.2     
   5 C5            -1.3061     2.2231     0.0203 C.ar    
   6 C6            -1.3187     3.6185     0.0280 C.ar    
   7 C7            -2.5363     4.2800     0.0369 C.ar    
   8 C8            -3.6992     3.5254     0.0378 C.ar    
   9 C9            -3.6124     2.1416     0.0299 C.ar    
  10 N10           -2.4448     1.5380     0.0165 N.ar    
  11 C11            1.4717    -2.0012    -0.0227 C.ar    
  12 C12            1.4697    -2.6856    -1.2238 C.ar    
  13 C13            1.4884    -4.0676    -1.2321 C.ar    
  14 C14            1.5092    -4.7660    -0.0379 C.ar    
  15 C15            1.5113    -4.0805     1.1638 C.ar    
  16 C16            1.4982    -2.6984     1.1707 C.ar    
  17 Cl17           1.5322    -6.5018    -0.0475 Cl      
  18 H18           -0.4983    -0.3791     0.8948 H       
  19 H19           -0.5153    -0.3696    -0.8850 H       
  20 H20            1.9516    -0.1193    -0.9073 H       
  21 H21            1.9686    -0.1289     0.8726 H       
  22 H22           -0.3930     4.1747     0.0273 H       
  23 H23           -2.5783     5.3592     0.0433 H       
  24 H24           -4.6639     4.0109     0.0450 H       
  25 H25           -4.5168     1.5514     0.0307 H       
  26 H26            1.4531    -2.1404    -2.1559 H       
  27 H27            1.4864    -4.6022    -2.1705 H       
  28 H28            1.5275    -4.6251     2.0963 H       
  29 H29            1.5043    -2.1631     2.1087 H       
@<TRIPOS>BOND
   1    1    2 1
   2    1    4 2
   3    1    5 1
   4    2    3 1
   5    2   18 1
   6    2   19 1
   7    3   11 1
   8    3   20 1
   9    3   21 1
  10    5    6 ar
  11    5   10 ar
  12    6    7 ar
  13    6   22 1
  14    7    8 ar
  15    7   23 1
  16    8    9 ar
  17    8   24 1
  18    9   10 ar
  19    9   25 1
  20   11   12 ar
  21   11   16 ar
  22   12   13 ar
  23   12   26 1
  24   13   14 ar
  25   13   27 1
  26   14   15 ar
  27   14   17 1
  28   15   16 ar
  29   15   28 1
  30   16   29 1

#	End of record

