#	Name: ASD03730866
#	Creating user name:	WinNT
#	Creation time:	15. 06. 2019 20:44

#	Modifying user name:	WinNT
#	Modification time:	15. 06. 2019 20:44

#	Program:	/corina/corina34_cracker 3.40 0067  02.08.2006

@<TRIPOS>MOLECULE
ASD03730866
  54   60    0    0    0
SMALL
NO_CHARGES


@<TRIPOS>ATOM
   1 C1             1.5254    -1.0422    -2.5975 C.2     
   2 C2             0.7686    -1.2313    -1.3421 C.ar    
   3 C3             1.2950    -0.7782    -0.1310 C.ar    
   4 C4             0.5835    -0.9579     1.0369 C.ar    
   5 C5            -0.6492    -1.5861     1.0100 C.ar    
   6 C6            -1.1766    -2.0374    -0.1866 C.ar    
   7 C7            -0.4782    -1.8585    -1.3630 C.ar    
   8 O8             2.5623    -0.4077    -2.5924 O.2     
   9 N9             1.0688    -1.5779    -3.7469 N.am    
  10 S10            1.2027    -1.8272    -6.5506 S.3     
  11 C11            1.7264    -1.3192    -4.9435 C.2     
  12 N12            2.8398    -0.6585    -5.0810 N.2     
  13 N13            3.2967    -0.5183    -6.2479 N.2     
  14 C14            2.6298    -1.0392    -7.2268 C.2     
  15 C15            2.6378    -0.0948    -0.0997 C.3     
  16 O16            0.7408    -2.4279     6.4309 O.3     
  17 C17            0.7906    -2.3802     7.8690 C.3     
  18 O18            2.1711    -2.0871     8.1541 O.3     
  19 C19            2.6334    -1.4071     7.0638 C.ar    
  20 C20            1.7540    -1.6179     6.0043 C.ar    
  21 C21            3.7512    -0.6116     6.8871 C.ar    
  22 C22            4.0070    -0.0188     5.6543 C.ar    
  23 C23            3.1257    -0.2434     4.6011 C.ar    
  24 C24            2.0071    -1.0312     4.7758 C.ar    
  25 O25            5.0280     0.8033     5.2773 O.3     
  26 C26            3.6799     0.4961     3.4129 C.3     
  27 C27            5.1181     0.8204     3.8396 C.3     
  28 N28            2.9186     0.3681     1.2616 N.am    
  29 C29            3.6406    -0.3307     2.1601 C.2     
  30 C30            2.8972     1.7358     3.0961 C.ar    
  31 C31            2.5720     2.8650     3.8139 C.ar    
  32 C32            1.8153     3.8643     3.2283 C.ar    
  33 C33            1.3859     3.7260     1.9209 C.ar    
  34 C34            1.7082     2.5963     1.1981 C.ar    
  35 C35            2.4699     1.5855     1.7794 C.ar    
  36 O36            4.1575    -1.4147     1.9899 O.2     
  37 H37            0.9896    -0.6079     1.9744 H       
  38 H38           -1.2019    -1.7249     1.9275 H       
  39 H39           -2.1391    -2.5271    -0.2006 H       
  40 H40           -0.8932    -2.2069    -2.2972 H       
  41 H41            0.2812    -2.1440    -3.7388 H       
  42 H42            2.8987    -0.9990    -8.2720 H       
  43 H43            3.4105    -0.7977    -0.4111 H       
  44 H44            2.6274     0.7579    -0.7786 H       
  45 H45            0.1448    -1.5884     8.2485 H       
  46 H46            0.5078    -3.3432     8.2942 H       
  47 H47            4.4299    -0.4494     7.7114 H       
  48 H48            1.3269    -1.1911     3.9522 H       
  49 H49            5.4150     1.8063     3.4820 H       
  50 H50            5.8087     0.0549     3.4859 H       
  51 H51            2.9082     2.9709     4.8347 H       
  52 H52            1.5608     4.7505     3.7907 H       
  53 H53            0.7951     4.5060     1.4638 H       
  54 H54            1.3688     2.4952     0.1778 H       
@<TRIPOS>BOND
   1    1    2 1
   2    1    8 2
   3    1    9 am
   4    2    3 ar
   5    2    7 ar
   6    3    4 ar
   7    3   15 1
   8    4    5 ar
   9    4   37 1
  10    5    6 ar
  11    5   38 1
  12    6    7 ar
  13    6   39 1
  14    7   40 1
  15    9   11 1
  16    9   41 1
  17   10   11 1
  18   10   14 1
  19   11   12 2
  20   12   13 1
  21   13   14 2
  22   14   42 1
  23   15   28 1
  24   15   43 1
  25   15   44 1
  26   16   17 1
  27   16   20 1
  28   17   18 1
  29   17   45 1
  30   17   46 1
  31   18   19 1
  32   19   20 ar
  33   19   21 ar
  34   20   24 ar
  35   21   22 ar
  36   21   47 1
  37   22   23 ar
  38   22   25 1
  39   23   24 ar
  40   23   26 1
  41   24   48 1
  42   25   27 1
  43   26   27 1
  44   26   29 1
  45   26   30 1
  46   27   49 1
  47   27   50 1
  48   28   29 am
  49   28   35 1
  50   29   36 2
  51   30   31 ar
  52   30   35 ar
  53   31   32 ar
  54   31   51 1
  55   32   33 ar
  56   32   52 1
  57   33   34 ar
  58   33   53 1
  59   34   35 ar
  60   34   54 1

#	End of record

