#	Name: ASD00841696
#	Creating user name:	WinNT
#	Creation time:	15. 06. 2019 18:42

#	Modifying user name:	WinNT
#	Modification time:	15. 06. 2019 18:42

#	Program:	/corina/corina34_cracker 3.40 0067  02.08.2006

@<TRIPOS>MOLECULE
ASD00841696
  95  100    0    0    0
SMALL
NO_CHARGES


@<TRIPOS>ATOM
   1 F1            -0.0819    -3.1421     4.7177 F       
   2 C2            -0.0151     1.3801     0.0252 C.ar    
   3 C3             0.0027    -0.0068     0.0106 C.ar    
   4 C4             1.2145    -0.6825    -0.0069 C.ar    
   5 C5             2.3996     0.0270    -0.0098 C.ar    
   6 C6             2.3791     1.4096     0.0052 C.ar    
   7 C7             1.1731     2.0852     0.0222 C.ar    
   8 C8             1.2376    -2.1893    -0.0223 C.3     
   9 C9             0.4953    -2.7185    -1.2306 C.2     
  10 N10            2.6179    -2.6801    -0.0124 N.am    
  11 C11            3.4633    -2.3341    -1.0034 C.2     
  12 N12            4.7589    -2.7002    -0.9424 N.am    
  13 O13            3.0571    -1.6916    -1.9523 O.2     
  14 C14            5.6723    -2.4336    -2.0640 C.3     
  15 C15            6.9190    -1.7284    -1.5194 C.3     
  16 N16            7.4921    -2.5273    -0.4280 N.3     
  17 C17            6.5584    -2.6346     0.7010 C.3     
  18 C18            5.2984    -3.3715     0.2499 C.3     
  19 C19            8.7825    -1.9758     0.0066 C.3     
  20 C20            9.2888    -2.7561     1.2230 C.3     
  21 C21           10.6610    -2.2171     1.6336 C.3     
  22 N22           11.5994    -2.3593     0.5131 N.3     
  23 C23           11.1584    -1.5804    -0.6510 C.3     
  24 C24            9.8010    -2.1003    -1.1298 C.3     
  25 C25           12.9606    -1.9803     0.9151 C.3     
  26 O26            0.7756    -2.5163    -2.3932 O.2     
  27 N27           -0.5318    -3.4546    -0.7743 N.am    
  28 C28            0.4672    -2.7427     1.1552 C.ar    
  29 C29           -0.5778    -3.4899     0.6215 C.ar    
  30 C30            0.6342    -2.6251     2.5174 C.ar    
  31 C31           -0.2443    -3.2555     3.3813 C.ar    
  32 C32           -1.3009    -4.0109     2.8627 C.ar    
  33 C33           -1.4640    -4.1263     1.4825 C.ar    
  34 C34           -0.9806    -5.8443    -2.0635 C.ar    
  35 C35            0.1995    -5.9982    -2.7768 C.ar    
  36 C36           -1.6535    -6.9550    -1.5909 C.ar    
  37 C37           -1.1531    -8.2209    -1.8267 C.ar    
  38 C38            0.0270    -8.3802    -2.5397 C.ar    
  39 C39            0.7036    -7.2677    -3.0152 C.ar    
  40 O40            0.5185    -9.6257    -2.7718 O.3     
  41 O41            0.8606    -4.9057    -3.2417 O.3     
  42 C42           -0.2310   -10.7261    -2.2528 C.3     
  43 C43            2.0690    -5.1389    -3.9679 C.3     
  44 C44            2.6663    -3.8006    -4.4074 C.3     
  45 C45           -2.2148    -4.6667     3.7490 C.1     
  46 N46           -2.9397    -5.1869     4.4521 N.1     
  47 S47           -1.6180    -4.2311    -1.7538 S.o2    
  48 O48           -2.7988    -4.4073    -0.9831 O.2     
  49 O49           -1.5973    -3.5457    -2.9985 O.2     
  50 O50           -1.1646    -0.7026     0.0139 O.3     
  51 C51           -3.5740    -0.8900     0.0337 C.3     
  52 C52           -2.3737     0.0588     0.0327 C.3     
  53 H53           -0.9571     1.9084     0.0343 H       
  54 H54            3.3430    -0.4985    -0.0234 H       
  55 H55            3.3068     1.9626     0.0037 H       
  56 H56            1.1597     3.1651     0.0339 H       
  57 H57            2.9233    -3.2542     0.7074 H       
  58 H58            5.9596    -3.3743    -2.5338 H       
  59 H59            5.1783    -1.7923    -2.7940 H       
  60 H60            7.6542    -1.6218    -2.3170 H       
  61 H61            6.6443    -0.7429    -1.1433 H       
  62 H62            7.0321    -3.1853     1.5137 H       
  63 H63            6.2888    -1.6365     1.0462 H       
  64 H64            4.5575    -3.3531     1.0491 H       
  65 H65            5.5469    -4.4032     0.0009 H       
  66 H66            8.6589    -0.9261     0.2729 H       
  67 H67            8.5885    -2.6361     2.0496 H       
  68 H68            9.3741    -3.8124     0.9680 H       
  69 H69           10.5723    -1.1643     1.9017 H       
  70 H70           11.0307    -2.7800     2.4906 H       
  71 H71           11.0674    -0.5306    -0.3723 H       
  72 H72           11.8894    -1.6809    -1.4533 H       
  73 H73            9.8944    -3.1463    -1.4218 H       
  74 H74            9.4667    -1.5119    -1.9842 H       
  75 H75           13.2907    -2.6231     1.7311 H       
  76 H76           13.6352    -2.0949     0.0666 H       
  77 H77           12.9659    -0.9417     1.2457 H       
  78 H78            1.4520    -2.0403     2.9119 H       
  79 H79           -2.2801    -4.7098     1.0825 H       
  80 H80           -2.5720    -6.8332    -1.0358 H       
  81 H81           -1.6804    -9.0874    -1.4557 H       
  82 H82            1.6218    -7.3896    -3.5706 H       
  83 H83            0.2702   -11.6597    -2.5080 H       
  84 H84           -0.3037   -10.6372    -1.1689 H       
  85 H85           -1.2314   -10.7206    -2.6857 H       
  86 H86            2.7810    -5.6625    -3.3299 H       
  87 H87            1.8533    -5.7466    -4.8467 H       
  88 H88            2.8820    -3.1929    -3.5286 H       
  89 H89            3.5880    -3.9785    -4.9613 H       
  90 H90            1.9543    -3.2770    -5.0454 H       
  91 H91           -3.5324    -1.5276     0.9167 H       
  92 H92           -4.4962    -0.3091     0.0480 H       
  93 H93           -3.5484    -1.5091    -0.8630 H       
  94 H94           -2.3992     0.6780     0.9294 H       
  95 H95           -2.4153     0.6965    -0.8503 H       
@<TRIPOS>BOND
   1    1   31 1
   2    2    3 ar
   3    2    7 ar
   4    2   53 1
   5    3    4 ar
   6    3   50 1
   7    4    5 ar
   8    4    8 1
   9    5    6 ar
  10    5   54 1
  11    6    7 ar
  12    6   55 1
  13    7   56 1
  14    8    9 1
  15    8   10 1
  16    8   28 1
  17    9   26 2
  18    9   27 am
  19   10   11 am
  20   10   57 1
  21   11   12 am
  22   11   13 2
  23   12   14 1
  24   12   18 1
  25   14   15 1
  26   14   58 1
  27   14   59 1
  28   15   16 1
  29   15   60 1
  30   15   61 1
  31   16   17 1
  32   16   19 1
  33   17   18 1
  34   17   62 1
  35   17   63 1
  36   18   64 1
  37   18   65 1
  38   19   20 1
  39   19   24 1
  40   19   66 1
  41   20   21 1
  42   20   67 1
  43   20   68 1
  44   21   22 1
  45   21   69 1
  46   21   70 1
  47   22   23 1
  48   22   25 1
  49   23   24 1
  50   23   71 1
  51   23   72 1
  52   24   73 1
  53   24   74 1
  54   25   75 1
  55   25   76 1
  56   25   77 1
  57   27   47 am
  58   27   29 1
  59   28   29 ar
  60   28   30 ar
  61   29   33 ar
  62   30   31 ar
  63   30   78 1
  64   31   32 ar
  65   32   33 ar
  66   32   45 1
  67   33   79 1
  68   34   35 ar
  69   34   36 ar
  70   34   47 1
  71   35   41 1
  72   35   39 ar
  73   36   37 ar
  74   36   80 1
  75   37   38 ar
  76   37   81 1
  77   38   39 ar
  78   38   40 1
  79   39   82 1
  80   40   42 1
  81   41   43 1
  82   42   83 1
  83   42   84 1
  84   42   85 1
  85   43   44 1
  86   43   86 1
  87   43   87 1
  88   44   88 1
  89   44   89 1
  90   44   90 1
  91   45   46 3
  92   47   48 2
  93   47   49 2
  94   50   52 1
  95   51   52 1
  96   51   91 1
  97   51   92 1
  98   51   93 1
  99   52   94 1
 100   52   95 1

#	End of record

