#	Name: ASD01230758
#	Creating user name:	WinNT
#	Creation time:	15. 06. 2019 19:15

#	Modifying user name:	WinNT
#	Modification time:	15. 06. 2019 19:15

#	Program:	/corina/corina34_cracker 3.40 0067  02.08.2006

@<TRIPOS>MOLECULE
ASD01230758
  30   32    0    0    0
SMALL
NO_CHARGES


@<TRIPOS>ATOM
   1 C1            -0.0166     1.3738     0.0096 C.2     
   2 C2             0.0021    -0.0041     0.0020 C.2     
   3 C3            -1.2144    -0.7001     0.0078 C.2     
   4 C4            -2.3849    -0.0392     0.0099 C.2     
   5 N5            -2.4623     1.3311     0.0007 N.pl3   
   6 C6            -1.3175     2.0759     0.0320 C.2     
   7 C7            -3.8099     1.9043    -0.0494 C.3     
   8 C8            -3.8783     3.1899     0.7801 C.3     
   9 S9            -2.6222     4.3261     0.1123 S.o2    
  10 N10           -1.2621     3.3847     0.0819 N.am    
  11 C11            1.2496     2.1410     0.0016 C.ar    
  12 C12            1.9994     2.2433    -1.1702 C.ar    
  13 O13           -2.8871     4.6256    -1.2513 O.2     
  14 O14           -2.3215     5.3519     1.0485 O.2     
  15 C15            1.6958     2.7706     1.1661 C.ar    
  16 C16            2.8787     3.4854     1.1507 C.ar    
  17 C17            3.6187     3.5774    -0.0141 C.ar    
  18 C18            3.1783     2.9601    -1.1716 C.ar    
  19 F19            0.9730     2.6813     2.3040 F       
  20 H20            0.9399    -0.5395    -0.0086 H       
  21 H21           -1.2114    -1.7801     0.0101 H       
  22 H22           -3.3018    -0.6097     0.0189 H       
  23 H23           -4.0663     2.1302    -1.0845 H       
  24 H24           -4.5230     1.1818     0.3476 H       
  25 H25           -4.8684     3.6370     0.6913 H       
  26 H26           -3.6616     2.9694     1.8253 H       
  27 H27            1.6579     1.7620    -2.0747 H       
  28 H28            3.2255     3.9733     2.0497 H       
  29 H29            4.5423     4.1371    -0.0214 H       
  30 H30            3.7612     3.0361    -2.0776 H       
@<TRIPOS>BOND
   1    1    2 2
   2    1   11 1
   3    1    6 1
   4    2    3 1
   5    2   20 1
   6    3    4 2
   7    3   21 1
   8    4    5 1
   9    4   22 1
  10    5    6 1
  11    5    7 1
  12    6   10 2
  13    7    8 1
  14    7   23 1
  15    7   24 1
  16    8    9 1
  17    8   25 1
  18    8   26 1
  19    9   10 am
  20    9   13 2
  21    9   14 2
  22   11   12 ar
  23   11   15 ar
  24   12   18 ar
  25   12   27 1
  26   15   16 ar
  27   15   19 1
  28   16   17 ar
  29   16   28 1
  30   17   18 ar
  31   17   29 1
  32   18   30 1

#	End of record

