#	Name: ASD01884142
#	Creating user name:	WinNT
#	Creation time:	15. 06. 2019 19:47

#	Modifying user name:	WinNT
#	Modification time:	15. 06. 2019 19:47

#	Program:	/corina/corina34_cracker 3.40 0067  02.08.2006

@<TRIPOS>MOLECULE
ASD01884142
  36   38    0    0    0
SMALL
NO_CHARGES


@<TRIPOS>ATOM
   1 C1            -1.2171    -0.6808    -0.0266 C.ar    
   2 C2             0.0021    -0.0041     0.0020 C.ar    
   3 C3            -0.0168     1.3900     0.0472 C.ar    
   4 C4            -1.2302     2.0442     0.0618 C.ar    
   5 N5            -2.3644     1.3692     0.0342 N.ar    
   6 C6            -2.3900     0.0495    -0.0151 C.ar    
   7 N7             1.2069    -0.7020    -0.0136 N.3     
   8 C8             1.3842    -1.4738     1.2230 C.3     
   9 C9             2.6420    -2.3382     1.1106 C.3     
  10 C10            3.6247    -0.6078    -0.3955 C.3     
  11 C11            2.3384     0.2064    -0.2394 C.3     
  12 Cl12          -1.2604    -2.4154    -0.0831 Cl      
  13 Cl13          -3.9158    -0.7779    -0.0492 Cl      
  14 C14            3.8558    -1.4358     0.8716 C.3     
  15 F15            4.0245    -0.5798     1.9652 F       
  16 C16            5.0888    -2.2852     0.7003 C.ar    
  17 C17            6.3423    -1.7083     0.7823 C.ar    
  18 C18            7.4734    -2.4874     0.6251 C.ar    
  19 C19            7.3508    -3.8435     0.3865 C.ar    
  20 C20            6.0973    -4.4205     0.3054 C.ar    
  21 C21            4.9664    -3.6422     0.4669 C.ar    
  22 H22            0.9068     1.9492     0.0707 H       
  23 H23           -1.2533     3.1234     0.0967 H       
  24 H24            1.4872    -0.7904     2.0660 H       
  25 H25            0.5161    -2.1143     1.3790 H       
  26 H26            2.7819    -2.8991     2.0347 H       
  27 H27            2.5339    -3.0312     0.2763 H       
  28 H28            3.5321    -1.2737    -1.2535 H       
  29 H29            4.4667     0.0675    -0.5474 H       
  30 H30            2.1634     0.7863    -1.1456 H       
  31 H31            2.4370     0.8819     0.6104 H       
  32 H32            6.4381    -0.6488     0.9687 H       
  33 H33            8.4527    -2.0366     0.6884 H       
  34 H34            8.2345    -4.4520     0.2630 H       
  35 H35            6.0016    -5.4799     0.1186 H       
  36 H36            3.9871    -4.0937     0.4073 H       
@<TRIPOS>BOND
   1    1    2 ar
   2    1   12 1
   3    1    6 ar
   4    2    3 ar
   5    2    7 1
   6    3    4 ar
   7    3   22 1
   8    4    5 ar
   9    4   23 1
  10    5    6 ar
  11    6   13 1
  12    7    8 1
  13    7   11 1
  14    8    9 1
  15    8   24 1
  16    8   25 1
  17    9   14 1
  18    9   26 1
  19    9   27 1
  20   10   11 1
  21   10   14 1
  22   10   28 1
  23   10   29 1
  24   11   30 1
  25   11   31 1
  26   14   15 1
  27   14   16 1
  28   16   17 ar
  29   16   21 ar
  30   17   18 ar
  31   17   32 1
  32   18   19 ar
  33   18   33 1
  34   19   20 ar
  35   19   34 1
  36   20   21 ar
  37   20   35 1
  38   21   36 1

#	End of record

