#	Name: ASD04590487
#	Creating user name:	WinNT
#	Creation time:	15. 06. 2019 20:50

#	Modifying user name:	WinNT
#	Modification time:	15. 06. 2019 20:50

#	Program:	/corina/corina34_cracker 3.40 0067  02.08.2006

@<TRIPOS>MOLECULE
ASD04590487
  56   60    0    0    0
SMALL
NO_CHARGES


@<TRIPOS>ATOM
   1 C1            -0.0167     1.3834     0.0096 C.ar    
   2 C2             0.0021    -0.0041     0.0020 C.ar    
   3 C3             2.3948     0.0191    -0.0202 C.ar    
   4 C4             2.3756     1.4249    -0.0129 C.ar    
   5 C5             1.1624     2.0987     0.0022 C.ar    
   6 N6             3.6952    -0.3637    -0.0352 N.2     
   7 C7             4.4664     0.6967    -0.0376 C.2     
   8 N8             3.6970     1.8290    -0.0242 N.pl3   
   9 C9             5.9437     0.6731    -0.0518 C.2     
  10 C10            6.7565    -0.4840    -0.0655 C.2     
  11 C11            8.0504    -0.0800    -0.0763 C.2     
  12 N12            8.0626     1.2789    -0.0698 N.pl3   
  13 N13            6.7358     1.7273    -0.0598 N.2     
  14 N14            6.3043    -1.8134    -0.0668 N.am    
  15 C15            7.1922    -2.8273    -0.0806 C.2     
  16 O16            8.3852    -2.5907    -0.0919 O.2     
  17 C17            1.1863    -0.6848    -0.0125 C.ar    
  18 C18            6.7174    -4.2233    -0.0819 C.ar    
  19 C19            7.6376    -5.2807    -0.0962 C.ar    
  20 C20           -1.2971    -0.7677     0.0103 C.3     
  21 N21           -1.7325    -1.0083    -1.3719 N.3     
  22 C22           -2.8622    -1.9482    -1.4124 C.3     
  23 C23           -0.6185    -1.4969    -2.1976 C.3     
  24 C24           -1.1001    -1.6771    -3.6397 C.3     
  25 O25           -2.2178    -2.5691    -3.6558 O.3     
  26 C26           -3.3212    -2.1239    -2.8623 C.3     
  27 C27            7.1805    -6.5896    -0.0975 C.ar    
  28 C28            5.8231    -6.8491    -0.0851 C.ar    
  29 C29            4.9098    -5.8053    -0.0714 C.ar    
  30 C30            5.3475    -4.4994    -0.0632 C.ar    
  31 O31            8.9697    -5.0243    -0.1093 O.3     
  32 C32            9.8473    -6.1520    -0.1234 C.3     
  33 Cl33           5.2580    -8.4906    -0.0873 Cl      
  34 H34           -0.9614     1.9069     0.0169 H       
  35 H35            1.1417     3.1785     0.0079 H       
  36 H36            4.0192     2.7439    -0.0231 H       
  37 H37            8.9175    -0.7237    -0.0874 H       
  38 H38            8.8531     1.8409    -0.0745 H       
  39 H39            5.3529    -2.0021    -0.0578 H       
  40 H40            1.1893    -1.7648    -0.0176 H       
  41 H41           -1.1546    -1.7218     0.5177 H       
  42 H42           -2.0564    -0.1872     0.5345 H       
  43 H43           -2.5486    -2.9117    -1.0106 H       
  44 H44           -3.6848    -1.5545    -0.8153 H       
  45 H45            0.1967    -0.7737    -2.1738 H       
  46 H46           -0.2691    -2.4532    -1.8084 H       
  47 H47           -1.3993    -0.7112    -4.0468 H       
  48 H48           -0.2936    -2.0932    -4.2434 H       
  49 H49           -4.1211    -2.8632    -2.9038 H       
  50 H50           -3.6850    -1.1711    -3.2469 H       
  51 H51            7.8860    -7.4073    -0.1085 H       
  52 H52            3.8509    -6.0175    -0.0625 H       
  53 H53            4.6329    -3.6897    -0.0525 H       
  54 H54           10.8814    -5.8076    -0.1329 H       
  55 H55            9.6744    -6.7581     0.7658 H       
  56 H56            9.6555    -6.7505    -1.0140 H       
@<TRIPOS>BOND
   1    1    2 ar
   2    1    5 ar
   3    1   34 1
   4    2   17 ar
   5    2   20 1
   6    3    4 ar
   7    3    6 1
   8    3   17 ar
   9    4    5 ar
  10    4    8 1
  11    5   35 1
  12    6    7 2
  13    7    8 1
  14    7    9 1
  15    8   36 1
  16    9   10 1
  17    9   13 2
  18   10   11 2
  19   10   14 1
  20   11   12 1
  21   11   37 1
  22   12   13 1
  23   12   38 1
  24   14   15 am
  25   14   39 1
  26   15   16 2
  27   15   18 1
  28   17   40 1
  29   18   19 ar
  30   18   30 ar
  31   19   27 ar
  32   19   31 1
  33   20   21 1
  34   20   41 1
  35   20   42 1
  36   21   22 1
  37   21   23 1
  38   22   26 1
  39   22   43 1
  40   22   44 1
  41   23   24 1
  42   23   45 1
  43   23   46 1
  44   24   25 1
  45   24   47 1
  46   24   48 1
  47   25   26 1
  48   26   49 1
  49   26   50 1
  50   27   28 ar
  51   27   51 1
  52   28   29 ar
  53   28   33 1
  54   29   30 ar
  55   29   52 1
  56   30   53 1
  57   31   32 1
  58   32   54 1
  59   32   55 1
  60   32   56 1

#	End of record

