#	Name: ASD05730084
#	Creating user name:	WinNT
#	Creation time:	15. 06. 2019 21:02

#	Modifying user name:	WinNT
#	Modification time:	15. 06. 2019 21:02

#	Program:	/corina/corina34_cracker 3.40 0067  02.08.2006

@<TRIPOS>MOLECULE
ASD05730084
  80   85    0    0    0
SMALL
NO_CHARGES


@<TRIPOS>ATOM
   1 C1             0.0291     1.5030     0.0325 C.3     
   2 C2             0.0369    -0.0039     0.0184 C.ar    
   3 C3            -0.9922    -0.7047     0.6203 C.ar    
   4 C4            -0.9884    -2.0857     0.6088 C.ar    
   5 C5             0.0506    -2.7707    -0.0083 C.ar    
   6 C6             1.0826    -2.0636    -0.6119 C.ar    
   7 C7             1.0700    -0.6827    -0.6014 C.ar    
   8 N8             0.0578    -4.1686    -0.0213 N.pl3   
   9 C9             0.5618    -4.8465    -1.1142 C.ar    
  10 N10            0.6611    -6.1657    -1.0561 N.ar    
  11 C11            1.1406    -6.8528    -2.0870 C.ar    
  12 C12            1.5411    -6.1482    -3.2432 C.ar    
  13 C13            1.4158    -4.7505    -3.2551 C.ar    
  14 N14            0.9241    -4.1513    -2.1870 N.ar    
  15 N15            1.2466    -8.2193    -2.0334 N.am    
  16 C16            1.7335    -8.9153    -3.0784 C.2     
  17 C17            2.1599    -8.2206    -4.2953 C.2     
  18 C18            2.0552    -6.8460    -4.3591 C.2     
  19 C19            0.8253    -8.9306    -0.8239 C.3     
  20 C20           -0.3059    -9.9311    -1.1505 C.3     
  21 O21            1.8201   -10.1284    -3.0111 O.2     
  22 C22            2.6961    -8.9846    -5.4444 C.ar    
  23 N23            2.7854   -10.3073    -5.3719 N.ar    
  24 C24            3.5973    -9.0375    -7.6622 C.ar    
  25 C25            3.6785   -10.4184    -7.5418 C.ar    
  26 C26            3.2571   -11.0233    -6.3727 C.ar    
  27 C27            3.0984    -8.3097    -6.5971 C.ar    
  28 C28            1.2821     2.0137     0.7475 C.3     
  29 C29            1.9710    -9.8199    -0.2922 C.3     
  30 O30            1.3173   -11.0123     0.1943 O.3     
  31 C31            0.2902   -11.3065    -0.7775 C.3     
  32 S32            4.3068   -11.3913    -8.8697 S.o2    
  33 C33            6.0906   -11.4886    -8.5550 C.3     
  34 C34            6.7578   -12.3185    -9.6537 C.3     
  35 N35            8.2023   -12.3973    -9.3988 N.3     
  36 C36            8.8416   -13.3744   -10.2902 C.3     
  37 O37            3.6987   -12.6630    -8.6906 O.2     
  38 O38            4.0468   -10.6116   -10.0289 O.2     
  39 C39            8.8324   -11.0765    -9.5272 C.3     
  40 N40            1.2856     3.4822     0.7430 N.3     
  41 C41            1.3233     4.0089    -0.6272 C.3     
  42 C42            0.0715     3.5578    -1.3832 C.3     
  43 C43            0.0186     2.0277    -1.4059 C.3     
  44 H44           -0.8587     1.8575     0.5563 H       
  45 H45           -1.7995    -0.1715     1.1003 H       
  46 H46           -1.7921    -2.6324     1.0794 H       
  47 H47            1.8921    -2.5932    -1.0922 H       
  48 H48            1.8719    -0.1323    -1.0709 H       
  49 H49           -0.2913    -4.6625     0.7370 H       
  50 H50            1.7120    -4.1776    -4.1213 H       
  51 H51            2.3633    -6.3124    -5.2462 H       
  52 H52            0.5014    -8.2240    -0.0597 H       
  53 H53           -1.1882    -9.7206    -0.5461 H       
  54 H54           -0.5517    -9.8965    -2.2119 H       
  55 H55            3.9205    -8.5424    -8.5660 H       
  56 H56            3.3154   -12.0976    -6.2779 H       
  57 H57            3.0210    -7.2341    -6.6571 H       
  58 H58            1.2854     1.6537     1.7763 H       
  59 H59            2.1695     1.6469     0.2317 H       
  60 H60            2.6633   -10.0681    -1.0967 H       
  61 H61            2.4962    -9.3170     0.5198 H       
  62 H62           -0.4758   -11.9456    -0.3383 H       
  63 H63            0.7247   -11.7827    -1.6564 H       
  64 H64            6.5141   -10.4842    -8.5505 H       
  65 H65            6.2637   -11.9602    -7.5877 H       
  66 H66            6.3343   -13.3229    -9.6582 H       
  67 H67            6.5847   -11.8469   -10.6210 H       
  68 H68            8.6854   -13.0770   -11.3271 H       
  69 H69            9.9105   -13.4128   -10.0804 H       
  70 H70            8.4033   -14.3586   -10.1246 H       
  71 H71            8.3874   -10.3901    -8.8069 H       
  72 H72            9.9015   -11.1636    -9.3336 H       
  73 H73            8.6758   -10.6959   -10.5365 H       
  74 H74            0.4926     3.8472     1.2490 H       
  75 H75            1.3565     5.0980    -0.5969 H       
  76 H76            2.2105     3.6328    -1.1366 H       
  77 H77           -0.8156     3.9452    -0.8822 H       
  78 H78            0.1074     3.9359    -2.4049 H       
  79 H79            0.8860     1.6411    -1.9410 H       
  80 H80           -0.8937     1.7021    -1.9058 H       
@<TRIPOS>BOND
   1    1    2 1
   2    1   28 1
   3    1   43 1
   4    1   44 1
   5    2    3 ar
   6    2    7 ar
   7    3    4 ar
   8    3   45 1
   9    4    5 ar
  10    4   46 1
  11    5    6 ar
  12    5    8 1
  13    6    7 ar
  14    6   47 1
  15    7   48 1
  16    8    9 1
  17    8   49 1
  18    9   10 ar
  19    9   14 ar
  20   10   11 ar
  21   11   12 ar
  22   11   15 1
  23   12   13 ar
  24   12   18 1
  25   13   14 ar
  26   13   50 1
  27   15   16 am
  28   15   19 1
  29   16   17 1
  30   16   21 2
  31   17   18 2
  32   17   22 1
  33   18   51 1
  34   19   20 1
  35   19   29 1
  36   19   52 1
  37   20   31 1
  38   20   53 1
  39   20   54 1
  40   22   27 ar
  41   22   23 ar
  42   23   26 ar
  43   24   25 ar
  44   24   27 ar
  45   24   55 1
  46   25   26 ar
  47   25   32 1
  48   26   56 1
  49   27   57 1
  50   28   40 1
  51   28   58 1
  52   28   59 1
  53   29   30 1
  54   29   60 1
  55   29   61 1
  56   30   31 1
  57   31   62 1
  58   31   63 1
  59   32   33 1
  60   32   37 2
  61   32   38 2
  62   33   34 1
  63   33   64 1
  64   33   65 1
  65   34   35 1
  66   34   66 1
  67   34   67 1
  68   35   36 1
  69   35   39 1
  70   36   68 1
  71   36   69 1
  72   36   70 1
  73   39   71 1
  74   39   72 1
  75   39   73 1
  76   40   41 1
  77   40   74 1
  78   41   42 1
  79   41   75 1
  80   41   76 1
  81   42   43 1
  82   42   77 1
  83   42   78 1
  84   43   79 1
  85   43   80 1

#	End of record

