#	Name: ASD08150534
#	Creating user name:	WinNT
#	Creation time:	15. 06. 2019 21:16

#	Modifying user name:	WinNT
#	Modification time:	15. 06. 2019 21:16

#	Program:	/corina/corina34_cracker 3.40 0067  02.08.2006

@<TRIPOS>MOLECULE
ASD08150534
  30   32    0    0    0
SMALL
NO_CHARGES


@<TRIPOS>ATOM
   1 N1            -0.0155     1.2941     0.0092 N.2     
   2 C2             0.0021    -0.0041     0.0020 C.2     
   3 N3             1.1489    -0.7361    -0.0129 N.am    
   4 C4             2.3561    -0.1244    -0.0206 C.2     
   5 C5             2.3703     1.3456    -0.0129 C.ar    
   6 C6             3.5603     2.0707    -0.0194 C.ar    
   7 C7             3.5159     3.4486    -0.0112 C.ar    
   8 C8             2.2967     4.1160     0.0039 C.ar    
   9 C9             1.1107     3.4175     0.0111 C.ar    
  10 C10            1.1298     2.0211     0.0021 C.ar    
  11 O11            3.3902    -0.7666    -0.0331 O.2     
  12 C12            1.0794    -2.1353    -0.0197 C.ar    
  13 C13            1.0563    -2.8374     1.1796 C.ar    
  14 C14            0.9878    -4.2176     1.1688 C.ar    
  15 C15            0.9426    -4.8995    -0.0336 C.ar    
  16 C16            0.9659    -4.2035    -1.2279 C.ar    
  17 C17            1.0277    -2.8233    -1.2242 C.ar    
  18 Cl18           1.1141    -1.9818     2.6890 Cl      
  19 C19           -1.3145    -0.7373     0.0112 C.3     
  20 Cl20          -2.6665     0.4554     0.0310 Cl      
  21 Cl21           4.9949     4.3577    -0.0193 Cl      
  22 H22            4.5103     1.5570    -0.0305 H       
  23 H23            2.2798     5.1958     0.0105 H       
  24 H24            0.1695     3.9469     0.0229 H       
  25 H25            0.9698    -4.7643     2.1001 H       
  26 H26            0.8895    -5.9782    -0.0395 H       
  27 H27            0.9313    -4.7392    -2.1650 H       
  28 H28            1.0407    -2.2803    -2.1577 H       
  29 H29           -1.3908    -1.3582    -0.8815 H       
  30 H30           -1.3731    -1.3678     0.8984 H       
@<TRIPOS>BOND
   1    1    2 2
   2    1   10 1
   3    2    3 1
   4    2   19 1
   5    3    4 am
   6    3   12 1
   7    4    5 1
   8    4   11 2
   9    5    6 ar
  10    5   10 ar
  11    6    7 ar
  12    6   22 1
  13    7    8 ar
  14    7   21 1
  15    8    9 ar
  16    8   23 1
  17    9   10 ar
  18    9   24 1
  19   12   13 ar
  20   12   17 ar
  21   13   14 ar
  22   13   18 1
  23   14   15 ar
  24   14   25 1
  25   15   16 ar
  26   15   26 1
  27   16   17 ar
  28   16   27 1
  29   17   28 1
  30   19   20 1
  31   19   29 1
  32   19   30 1

#	End of record

