#	Name: ASD01912131
#	Creating user name:	WinNT
#	Creation time:	15. 06. 2019 19:59

#	Modifying user name:	WinNT
#	Modification time:	15. 06. 2019 19:59

#	Program:	/corina/corina34_cracker 3.40 0067  02.08.2006

@<TRIPOS>MOLECULE
ASD01912131
  43   46    0    0    0
SMALL
NO_CHARGES


@<TRIPOS>ATOM
   1 C1             0.0453     1.4286     0.2087 C.3     
   2 C2             0.0574    -0.0993     0.2949 C.3     
   3 C3            -1.3780    -0.6267     0.2344 C.3     
   4 C4            -2.1688    -0.0813     1.4277 C.3     
   5 N5            -2.0642     1.3842     1.4343 N.am    
   6 C6            -0.7294     1.9973     1.4017 C.3     
   7 C7            -4.5088     1.5226     1.4180 C.ar    
   8 C8            -3.1717     2.1515     1.4697 C.2     
   9 O9            -3.0712     3.3606     1.5441 O.2     
  10 C10            1.4608     1.9451     0.2358 C.2     
  11 O11            2.3532     1.7649     1.2145 O.3     
  12 N12            3.3992     2.3079     0.9279 N.2     
  13 C13            3.3002     2.8856    -0.2406 C.2     
  14 N14            2.0497     2.6503    -0.6977 N.2     
  15 C15            4.3639     3.6514    -0.9381 C.ar    
  16 C16            5.6112     3.8030    -0.3386 C.ar    
  17 C17            6.5939     4.5197    -1.0013 C.ar    
  18 C18            6.2947     5.0608    -2.2428 C.ar    
  19 C19            5.0336     4.8708    -2.7793 C.ar    
  20 N20            4.1195     4.1807    -2.1295 N.ar    
  21 C21           -5.4606     1.9746     0.5031 C.ar    
  22 C22           -6.7069     1.3840     0.4585 C.ar    
  23 C23           -7.0152     0.3456     1.3185 C.ar    
  24 C24           -6.0753    -0.1090     2.2299 C.ar    
  25 C25           -4.8221     0.4706     2.2801 C.ar    
  26 F26           -6.3832    -1.1237     3.0670 F       
  27 H27           -0.4367     1.7368    -0.7191 H       
  28 H28            0.6290    -0.5056    -0.5395 H       
  29 H29            0.5178    -0.4064     1.2340 H       
  30 H30           -1.8471    -0.2991    -0.6933 H       
  31 H31           -1.3672    -1.7160     0.2724 H       
  32 H32           -3.2152    -0.3726     1.3364 H       
  33 H33           -1.7555    -0.4814     2.3536 H       
  34 H34           -0.1987     1.7668     2.3254 H       
  35 H35           -0.8260     3.0776     1.2932 H       
  36 H36            5.8096     3.3683     0.6299 H       
  37 H37            7.5709     4.6544    -0.5611 H       
  38 H38            7.0388     5.6252    -2.7852 H       
  39 H39            4.7969     5.2910    -3.7456 H       
  40 H40           -5.2223     2.7858    -0.1689 H       
  41 H41           -7.4437     1.7337    -0.2495 H       
  42 H42           -7.9924    -0.1126     1.2798 H       
  43 H43           -4.0896     0.1161     2.9901 H       
@<TRIPOS>BOND
   1    1    2 1
   2    1   10 1
   3    1    6 1
   4    1   27 1
   5    2    3 1
   6    2   28 1
   7    2   29 1
   8    3    4 1
   9    3   30 1
  10    3   31 1
  11    4    5 1
  12    4   32 1
  13    4   33 1
  14    5    6 1
  15    5    8 am
  16    6   34 1
  17    6   35 1
  18    7    8 1
  19    7   21 ar
  20    7   25 ar
  21    8    9 2
  22   10   11 1
  23   10   14 2
  24   11   12 1
  25   12   13 2
  26   13   14 1
  27   13   15 1
  28   15   16 ar
  29   15   20 ar
  30   16   17 ar
  31   16   36 1
  32   17   18 ar
  33   17   37 1
  34   18   19 ar
  35   18   38 1
  36   19   20 ar
  37   19   39 1
  38   21   22 ar
  39   21   40 1
  40   22   23 ar
  41   22   41 1
  42   23   24 ar
  43   23   42 1
  44   24   25 ar
  45   24   26 1
  46   25   43 1

#	End of record

