#	Name: ASD05730045
#	Creating user name:	WinNT
#	Creation time:	15. 06. 2019 21:02

#	Modifying user name:	WinNT
#	Modification time:	15. 06. 2019 21:02

#	Program:	/corina/corina34_cracker 3.40 0067  02.08.2006

@<TRIPOS>MOLECULE
ASD05730045
  82   87    0    0    0
SMALL
NO_CHARGES


@<TRIPOS>ATOM
   1 C1            -0.0875     1.5027     0.0207 C.3     
   2 C2            -0.0519    -0.0038     0.0071 C.ar    
   3 C3            -0.0469    -0.6829    -1.1976 C.ar    
   4 C4            -0.0143    -2.0634    -1.2136 C.ar    
   5 C5             0.0138    -2.7699    -0.0180 C.ar    
   6 C6             0.0092    -2.0846     1.1903 C.ar    
   7 C7            -0.0186    -0.7039     1.1992 C.ar    
   8 N8             0.0464    -4.1675    -0.0306 N.pl3   
   9 C9             0.7536    -4.8508     0.9398 C.ar    
  10 N10            0.6769    -6.1724     0.9731 N.ar    
  11 C11            1.3428    -6.8641     1.8909 C.ar    
  12 C12            2.1322    -6.1626     2.8279 C.ar    
  13 C13            2.1804    -4.7626     2.7505 C.ar    
  14 N14            1.4899    -4.1582     1.8019 N.ar    
  15 N15            1.2688    -8.2334     1.9331 N.am    
  16 C16            1.9459    -8.9297     2.8663 C.2     
  17 C17            2.7735    -8.2330     3.8532 C.2     
  18 C18            2.8546    -6.8666     3.8181 C.2     
  19 C19            0.4444    -8.9454     0.9534 C.3     
  20 O20            1.8691   -10.1452     2.8897 O.2     
  21 C21            3.5168    -8.9998     4.8803 C.ar    
  22 C22            4.8967    -9.1680     4.7661 C.ar    
  23 C23            1.2418    -9.1701    -0.3054 C.ar    
  24 S24           -1.5619     2.0711     0.9217 S.3     
  25 C25            1.1568     2.0407     0.7355 C.3     
  26 N26            1.1477     3.5052     0.7160 N.3     
  27 C27            0.1486     4.0730     1.6241 C.3     
  28 C28           -1.2567     3.8596     1.0511 C.3     
  29 C29            0.6370    -9.7268    -1.4165 C.ar    
  30 C30            2.8406    -9.5512     5.9679 C.ar    
  31 C31            3.5384   -10.2644     6.9213 C.ar    
  32 C32            4.9059   -10.4327     6.7995 C.ar    
  33 C33            5.5834    -9.8831     5.7255 C.ar    
  34 S34            5.7899   -11.3446     8.0209 S.o2    
  35 C35            5.7538   -13.0565     7.4218 C.3     
  36 O36            7.1103   -10.8229     7.9603 O.2     
  37 C37            2.4844     4.0438     1.0009 C.3     
  38 C38            1.3685    -9.9330    -2.5714 C.ar    
  39 C39            2.7047    -9.5820    -2.6150 C.ar    
  40 C40            3.3095    -9.0243    -1.5039 C.ar    
  41 C41            2.5770    -8.8142    -0.3507 C.ar    
  42 O42            5.0025   -11.2109     9.1962 O.2     
  43 C43           -0.8198   -10.1096    -1.3689 C.3     
  44 F44           -1.1730   -10.7495    -2.5618 F       
  45 F45           -1.0396   -10.9755    -0.2923 F       
  46 F46           -1.5993    -8.9590    -1.2085 F       
  47 C47            5.6359    -8.5704     3.5967 C.3     
  48 F48            6.9979    -8.8721     3.7025 F       
  49 F49            5.1316    -9.1023     2.4051 F       
  50 F50            5.4645    -7.1819     3.5969 F       
  51 C51            6.4984   -13.9579     8.4087 C.3     
  52 F52            5.8795   -13.8891     9.6615 F       
  53 F53            6.4706   -15.2782     7.9467 F       
  54 F54            7.8259   -13.5308     8.5203 F       
  55 H55           -0.1128     1.8777    -1.0024 H       
  56 H56           -0.0688    -0.1330    -2.1268 H       
  57 H57           -0.0112    -2.5932    -2.1548 H       
  58 H58            0.0310    -2.6309     2.1217 H       
  59 H59           -0.0223    -0.1705     2.1382 H       
  60 H60           -0.4276    -4.6574    -0.7207 H       
  61 H61            2.7732    -4.1917     3.4499 H       
  62 H62            3.4596    -6.3347     4.5375 H       
  63 H63            0.1386    -9.9068     1.3662 H       
  64 H64           -0.4397    -8.3514     0.7223 H       
  65 H65            1.1601     1.6922     1.7684 H       
  66 H66            2.0509     1.6772     0.2291 H       
  67 H67            0.2220     3.5835     2.5952 H       
  68 H68            0.3328     5.1407     1.7432 H       
  69 H69           -1.3222     4.3147     0.0628 H       
  70 H70           -1.9949     4.3101     1.7145 H       
  71 H71            1.7729    -9.4201     6.0641 H       
  72 H72            3.0158   -10.6917     7.7643 H       
  73 H73            6.6512   -10.0178     5.6358 H       
  74 H74            4.7195   -13.3893     7.3349 H       
  75 H75            6.2360   -13.1101     6.4457 H       
  76 H76            3.1874     3.6885     0.2474 H       
  77 H77            2.4492     5.1330     0.9801 H       
  78 H78            2.8084     3.7094     1.9864 H       
  79 H79            0.8961   -10.3687    -3.4393 H       
  80 H80            3.2763    -9.7437    -3.5169 H       
  81 H81            4.3536    -8.7503    -1.5378 H       
  82 H82            3.0495    -8.3785     0.5172 H       
@<TRIPOS>BOND
   1    1    2 1
   2    1   25 1
   3    1   24 1
   4    1   55 1
   5    2    3 ar
   6    2    7 ar
   7    3    4 ar
   8    3   56 1
   9    4    5 ar
  10    4   57 1
  11    5    6 ar
  12    5    8 1
  13    6    7 ar
  14    6   58 1
  15    7   59 1
  16    8    9 1
  17    8   60 1
  18    9   10 ar
  19    9   14 ar
  20   10   11 ar
  21   11   12 ar
  22   11   15 1
  23   12   13 ar
  24   12   18 1
  25   13   14 ar
  26   13   61 1
  27   15   16 am
  28   15   19 1
  29   16   17 1
  30   16   20 2
  31   17   18 2
  32   17   21 1
  33   18   62 1
  34   19   23 1
  35   19   63 1
  36   19   64 1
  37   21   22 ar
  38   21   30 ar
  39   22   47 1
  40   22   33 ar
  41   23   29 ar
  42   23   41 ar
  43   24   28 1
  44   25   26 1
  45   25   65 1
  46   25   66 1
  47   26   27 1
  48   26   37 1
  49   27   28 1
  50   27   67 1
  51   27   68 1
  52   28   69 1
  53   28   70 1
  54   29   38 ar
  55   29   43 1
  56   30   31 ar
  57   30   71 1
  58   31   32 ar
  59   31   72 1
  60   32   33 ar
  61   32   34 1
  62   33   73 1
  63   34   35 1
  64   34   36 2
  65   34   42 2
  66   35   51 1
  67   35   74 1
  68   35   75 1
  69   37   76 1
  70   37   77 1
  71   37   78 1
  72   38   39 ar
  73   38   79 1
  74   39   40 ar
  75   39   80 1
  76   40   41 ar
  77   40   81 1
  78   41   82 1
  79   43   44 1
  80   43   45 1
  81   43   46 1
  82   47   48 1
  83   47   49 1
  84   47   50 1
  85   51   52 1
  86   51   53 1
  87   51   54 1

#	End of record

