#	Name: ASD09740295
#	Creating user name:	WinNT
#	Creation time:	15. 06. 2019 21:23

#	Modifying user name:	WinNT
#	Modification time:	15. 06. 2019 21:23

#	Program:	/corina/corina34_cracker 3.40 0067  02.08.2006

@<TRIPOS>MOLECULE
ASD09740295
  51   54    0    0    0
SMALL
NO_CHARGES


@<TRIPOS>ATOM
   1 N1            -0.0144     1.2085     0.0087 N.2     
   2 O2             0.0021    -0.0041     0.0020 O.3     
   3 C3             1.2057     1.6798    -0.0004 C.2     
   4 N4             2.0455     0.6238    -0.0141 N.2     
   5 C5             1.2699    -0.4439    -0.0124 C.2     
   6 C6             1.7128    -1.8544    -0.0235 C.ar    
   7 C7             1.5950     3.1130     0.0035 C.ar    
   8 C8             0.6264     4.1194     0.0187 C.ar    
   9 C9             1.0316     5.4391     0.0224 C.ar    
  10 N10            2.3123     5.7538     0.0118 N.ar    
  11 C11            3.2578     4.8344    -0.0026 C.ar    
  12 C12            2.9398     3.4911    -0.0019 C.ar    
  13 C13            3.0750    -2.1601    -0.0374 C.ar    
  14 C14            3.4889    -3.4772    -0.0477 C.ar    
  15 C15            2.5598    -4.4991    -0.0439 C.ar    
  16 C16            1.1964    -4.2067    -0.0301 C.ar    
  17 C17            0.7716    -2.8825    -0.0143 C.ar    
  18 C18            0.2003    -5.3068    -0.0266 C.ar    
  19 C19           -1.1623    -5.0162    -0.0128 C.ar    
  20 C20           -2.0843    -6.0433    -0.0096 C.ar    
  21 C21           -1.6578    -7.3590    -0.0196 C.ar    
  22 C22           -0.3063    -7.6532    -0.0333 C.ar    
  23 C23            0.6243    -6.6339    -0.0429 C.ar    
  24 C24           -4.4081   -10.3535    -2.8920 C.3     
  25 C25           -4.0521    -9.9819    -1.4512 C.3     
  26 C26           -3.0252    -8.8477    -1.4558 C.3     
  27 C27           -2.6692    -8.4762    -0.0150 C.3     
  28 C28            4.9606    -3.8012    -0.0636 C.3     
  29 F29            5.6996    -2.6133    -0.0652 F       
  30 F30            5.2854    -4.5509     1.0720 F       
  31 F31            5.2631    -4.5400    -1.2125 F       
  32 H32           -0.4241     3.8688     0.0271 H       
  33 H33            0.2900     6.2241     0.0337 H       
  34 H34            4.2947     5.1365    -0.0109 H       
  35 H35            3.7191     2.7435    -0.0138 H       
  36 H36            3.8060    -1.3652    -0.0404 H       
  37 H37            2.8901    -5.5274    -0.0520 H       
  38 H38           -0.2834    -2.6517    -0.0036 H       
  39 H39           -1.4964    -3.9892    -0.0043 H       
  40 H40           -3.1408    -5.8192     0.0011 H       
  41 H41            0.0213    -8.6823    -0.0406 H       
  42 H42            1.6793    -6.8647    -0.0536 H       
  43 H43           -4.8288    -9.4846    -3.3980 H       
  44 H44           -3.5094   -10.6792    -3.4159 H       
  45 H45           -5.1397   -11.1615    -2.8887 H       
  46 H46           -4.9508    -9.6563    -0.9273 H       
  47 H47           -3.6314   -10.8509    -0.9452 H       
  48 H48           -2.1266    -9.1734    -1.9797 H       
  49 H49           -3.4459    -7.9788    -1.9618 H       
  50 H50           -2.2485    -9.3451     0.4910 H       
  51 H51           -3.5679    -8.1505     0.5089 H       
@<TRIPOS>BOND
   1    1    2 1
   2    1    3 2
   3    2    5 1
   4    3    4 1
   5    3    7 1
   6    4    5 2
   7    5    6 1
   8    6   13 ar
   9    6   17 ar
  10    7    8 ar
  11    7   12 ar
  12    8    9 ar
  13    8   32 1
  14    9   10 ar
  15    9   33 1
  16   10   11 ar
  17   11   12 ar
  18   11   34 1
  19   12   35 1
  20   13   14 ar
  21   13   36 1
  22   14   15 ar
  23   14   28 1
  24   15   16 ar
  25   15   37 1
  26   16   17 ar
  27   16   18 1
  28   17   38 1
  29   18   19 ar
  30   18   23 ar
  31   19   20 ar
  32   19   39 1
  33   20   21 ar
  34   20   40 1
  35   21   22 ar
  36   21   27 1
  37   22   23 ar
  38   22   41 1
  39   23   42 1
  40   24   25 1
  41   24   43 1
  42   24   44 1
  43   24   45 1
  44   25   26 1
  45   25   46 1
  46   25   47 1
  47   26   27 1
  48   26   48 1
  49   26   49 1
  50   27   50 1
  51   27   51 1
  52   28   29 1
  53   28   30 1
  54   28   31 1

#	End of record

