#	Name: ASD01940356
#	Creating user name:	WinNT
#	Creation time:	15. 06. 2019 20:12

#	Modifying user name:	WinNT
#	Modification time:	15. 06. 2019 20:12

#	Program:	/corina/corina34_cracker 3.40 0067  02.08.2006

@<TRIPOS>MOLECULE
ASD01940356
  51   54    0    0    0
SMALL
NO_CHARGES


@<TRIPOS>ATOM
   1 C1             1.2642     7.2044    -3.9375 C.3     
   2 C2             1.5758     7.4087    -5.4214 C.3     
   3 C3             1.8731     6.0638    -4.7554 C.3     
   4 S4             2.3361     8.0372    -2.7342 S.o2    
   5 O5             3.6670     7.5486    -2.8299 O.2     
   6 O6             2.0679     9.4325    -2.7092 O.2     
   7 N7             1.8061     7.4931    -1.2626 N.am    
   8 C8             1.9901     6.1510    -0.9042 C.ar    
   9 C9             1.1166     5.5425    -0.0037 C.ar    
  10 C10            1.3034     4.2125     0.3475 C.ar    
  11 C11            2.3563     3.4943    -0.1974 C.ar    
  12 C12            3.2222     4.1008    -1.0907 C.ar    
  13 C13            3.0377     5.4241    -1.4486 C.ar    
  14 F14            2.5379     2.2000     0.1444 F       
  15 F15            0.4598     3.6187     1.2199 F       
  16 N16            0.0533     6.2717     0.5457 N.pl3   
  17 C17            0.6855     8.6795     3.8897 C.ar    
  18 C18           -0.6064     8.4949     3.3982 C.ar    
  19 C19           -0.8146     7.6973     2.2916 C.ar    
  20 C20            0.2649     7.0785     1.6662 C.ar    
  21 C21            1.5521     7.2624     2.1557 C.ar    
  22 C22            1.7636     8.0586     3.2619 C.ar    
  23 C23            0.9126     9.5415     5.0756 C.ar    
  24 C24            2.2010     9.7257     5.5658 C.ar    
  25 C25            2.4066    10.5389     6.6822 C.ar    
  26 C26            1.3157    11.1617     7.2987 C.ar    
  27 C27            0.0417    10.9725     6.8046 C.ar    
  28 C28           -0.1650    10.1727     5.6968 C.ar    
  29 F29           -2.0656     7.5175     1.8143 F       
  30 C30            3.7662    10.7399     7.2091 C.2     
  31 O31            4.7100    10.1989     6.6735 O.2     
  32 C32            3.9853    11.6180     8.4140 C.3     
  33 H33            0.2163     7.1147    -3.6510 H       
  34 H34            0.7330     7.4534    -6.1112 H       
  35 H35            2.4249     8.0436    -5.6746 H       
  36 H36            2.9177     5.8137    -4.5705 H       
  37 H37            1.2258     5.2236    -5.0070 H       
  38 H38            1.3684     8.1034    -0.6488 H       
  39 H39            4.0417     3.5380    -1.5128 H       
  40 H40            3.7128     5.8927    -2.1494 H       
  41 H41           -0.8297     6.2161     0.1479 H       
  42 H42           -1.4432     8.9750     3.8836 H       
  43 H43            2.3879     6.7811     1.6697 H       
  44 H44            2.7646     8.2008     3.6415 H       
  45 H45            3.0385     9.2418     5.0855 H       
  46 H46            1.4712    11.7910     8.1625 H       
  47 H47           -0.7977    11.4547     7.2835 H       
  48 H48           -1.1648    10.0328     5.3129 H       
  49 H49            3.9201    11.0150     9.3197 H       
  50 H50            4.9716    12.0780     8.3539 H       
  51 H51            3.2224    12.3962     8.4400 H       
@<TRIPOS>BOND
   1    1    2 1
   2    1    3 1
   3    1    4 1
   4    1   33 1
   5    2    3 1
   6    2   34 1
   7    2   35 1
   8    3   36 1
   9    3   37 1
  10    4    5 2
  11    4    6 2
  12    4    7 am
  13    7    8 1
  14    7   38 1
  15    8    9 ar
  16    8   13 ar
  17    9   10 ar
  18    9   16 1
  19   10   11 ar
  20   10   15 1
  21   11   12 ar
  22   11   14 1
  23   12   13 ar
  24   12   39 1
  25   13   40 1
  26   16   20 1
  27   16   41 1
  28   17   18 ar
  29   17   22 ar
  30   17   23 1
  31   18   19 ar
  32   18   42 1
  33   19   20 ar
  34   19   29 1
  35   20   21 ar
  36   21   22 ar
  37   21   43 1
  38   22   44 1
  39   23   24 ar
  40   23   28 ar
  41   24   25 ar
  42   24   45 1
  43   25   26 ar
  44   25   30 1
  45   26   27 ar
  46   26   46 1
  47   27   28 ar
  48   27   47 1
  49   28   48 1
  50   30   31 2
  51   30   32 1
  52   32   49 1
  53   32   50 1
  54   32   51 1

#	End of record

