#	Name: ASD01918173
#	Creating user name:	WinNT
#	Creation time:	15. 06. 2019 20:10

#	Modifying user name:	WinNT
#	Modification time:	15. 06. 2019 20:10

#	Program:	/corina/corina34_cracker 3.40 0067  02.08.2006

@<TRIPOS>MOLECULE
ASD01918173
  48   51    0    0    0
SMALL
NO_CHARGES


@<TRIPOS>ATOM
   1 C1             0.5084     2.0620    -0.5528 C.ar    
   2 C2             0.7746     0.7505    -0.9698 C.ar    
   3 C3             2.0613     0.3635    -1.1956 C.ar    
   4 C4             3.1163     1.2551    -1.0171 C.ar    
   5 C5             2.8922     2.5355    -0.6126 C.ar    
   6 C6             1.5778     2.9707    -0.3705 C.ar    
   7 N7             1.3292     4.2241     0.0264 N.ar    
   8 C8             0.1071     4.6449     0.2558 C.ar    
   9 C9            -0.9950     3.8150     0.1004 C.ar    
  10 C10           -0.8147     2.5047    -0.3134 C.ar    
  11 S11           -2.6158     4.4267     0.4220 S.o2    
  12 O12           -3.2502     3.4644     1.2531 O.2     
  13 O13           -2.4644     5.7912     0.7887 O.2     
  14 C14           -3.4901     4.4167    -1.1077 C.ar    
  15 C15           -3.3251     5.4553    -2.0049 C.ar    
  16 C16           -4.3367     3.3674    -1.4131 C.ar    
  17 C17           -5.0226     3.3596    -2.6133 C.ar    
  18 C18           -4.8623     4.4012    -3.5078 C.ar    
  19 C19           -4.0110     5.4474    -3.2051 C.ar    
  20 N20           -1.8956     1.6533    -0.4836 N.3     
  21 C21           -3.2799     0.3891    -2.0603 C.3     
  22 C22           -3.2480    -0.8179    -1.1187 C.3     
  23 C23           -3.0916    -0.3264     0.3231 C.3     
  24 C24           -1.8158     0.5111     0.4359 C.3     
  25 C25           -1.9986     1.2059    -1.8785 C.3     
  26 C26           -4.5532    -1.6050    -1.2519 C.3     
  27 H27           -0.0357     0.0506    -1.1111 H       
  28 H28            2.2658    -0.6472    -1.5166 H       
  29 H29            4.1279     0.9255    -1.2022 H       
  30 H30            3.7213     3.2143    -0.4781 H       
  31 H31           -0.0453     5.6654     0.5747 H       
  32 H32           -2.6606     6.2730    -1.7681 H       
  33 H33           -4.4619     2.5536    -0.7143 H       
  34 H34           -5.6835     2.5395    -2.8522 H       
  35 H35           -5.3979     4.3949    -4.4456 H       
  36 H36           -3.8823     6.2590    -3.9059 H       
  37 H37           -3.3481     0.0440    -3.0920 H       
  38 H38           -4.1441     1.0107    -1.8260 H       
  39 H39           -2.4062    -1.4600    -1.3779 H       
  40 H40           -3.9528     0.2839     0.5949 H       
  41 H41           -3.0254    -1.1827     0.9943 H       
  42 H42           -0.9537    -0.1037     0.1772 H       
  43 H43           -1.7090     0.8745     1.4580 H       
  44 H44           -2.0246     2.0739    -2.5373 H       
  45 H45           -1.1356     0.5878    -2.1262 H       
  46 H46           -4.6664    -1.9496    -2.2797 H       
  47 H47           -4.5296    -2.4639    -0.5812 H       
  48 H48           -5.3935    -0.9622    -0.9895 H       
@<TRIPOS>BOND
   1    1    2 ar
   2    1    6 ar
   3    1   10 ar
   4    2    3 ar
   5    2   27 1
   6    3    4 ar
   7    3   28 1
   8    4    5 ar
   9    4   29 1
  10    5    6 ar
  11    5   30 1
  12    6    7 ar
  13    7    8 ar
  14    8    9 ar
  15    8   31 1
  16    9   10 ar
  17    9   11 1
  18   10   20 1
  19   11   12 2
  20   11   13 2
  21   11   14 1
  22   14   16 ar
  23   14   15 ar
  24   15   19 ar
  25   15   32 1
  26   16   17 ar
  27   16   33 1
  28   17   18 ar
  29   17   34 1
  30   18   19 ar
  31   18   35 1
  32   19   36 1
  33   20   25 1
  34   20   24 1
  35   21   22 1
  36   21   25 1
  37   21   37 1
  38   21   38 1
  39   22   23 1
  40   22   26 1
  41   22   39 1
  42   23   24 1
  43   23   40 1
  44   23   41 1
  45   24   42 1
  46   24   43 1
  47   25   44 1
  48   25   45 1
  49   26   46 1
  50   26   47 1
  51   26   48 1

#	End of record

