#	Name: ASD01200135
#	Creating user name:	WinNT
#	Creation time:	15. 06. 2019 19:08

#	Modifying user name:	WinNT
#	Modification time:	15. 06. 2019 19:08

#	Program:	/corina/corina34_cracker 3.40 0067  02.08.2006

@<TRIPOS>MOLECULE
ASD01200135
  50   53    0    0    0
SMALL
NO_CHARGES


@<TRIPOS>ATOM
   1 C1            -0.0196     1.3722    -0.0082 C.ar    
   2 C2             0.0019    -0.0110    -0.0155 C.ar    
   3 C3             1.2098    -0.6889    -0.0249 C.ar    
   4 C4             2.3918     0.0142    -0.0269 C.ar    
   5 C5             2.3818     1.4113    -0.0195 C.ar    
   6 C6             1.1606     2.0872    -0.0101 C.ar    
   7 C7             3.8416    -0.4018    -0.0360 C.3     
   8 N8             4.6249     0.8390    -0.0333 N.am    
   9 C9             3.7794     1.8839    -0.0237 C.2     
  10 O10            4.1180     3.0514    -0.0189 O.2     
  11 S11            4.2186    -1.3803     1.4442 S.3     
  12 C12            6.0874     0.9247    -0.0398 C.3     
  13 C13            6.5820     0.9615    -1.4629 C.2     
  14 C14            3.6296    -3.0372     0.9990 C.3     
  15 C15            3.8761    -3.9830     2.1461 C.2     
  16 N16            3.5169    -5.2777     2.0411 N.am    
  17 O17            4.3977    -3.5791     3.1636 O.2     
  18 C18            3.8402    -6.1727     3.0535 C.ar    
  19 C19            6.7707     2.0684    -2.1830 C.2     
  20 C20            7.2326     1.8550    -3.4703 C.2     
  21 C21            7.4192     0.5749    -3.7956 C.2     
  22 S22            7.0061    -0.4480    -2.4257 S.3     
  23 N23            4.5855    -5.7661     4.0713 N.ar    
  24 C24            4.9165    -6.5784     5.0532 C.ar    
  25 C25            4.4864    -7.9067     5.0497 C.ar    
  26 C26            3.6960    -8.3636     3.9840 C.ar    
  27 C27            3.3717    -7.4826     2.9871 C.ar    
  28 C28            4.8578    -8.8163     6.1495 C.2     
  29 O29            4.4787    -9.9706     6.1374 O.2     
  30 O30            5.6176    -8.3673     7.1677 O.3     
  31 C31            5.9443    -9.3180     8.2155 C.3     
  32 H32           -0.9646     1.8950    -0.0055 H       
  33 H33           -0.9259    -0.5639    -0.0136 H       
  34 H34            1.2234    -1.7688    -0.0302 H       
  35 H35            1.1394     3.1670    -0.0047 H       
  36 H36            4.0596    -0.9804    -0.9337 H       
  37 H37            6.4005     1.8317     0.4773 H       
  38 H38            6.5046     0.0548     0.4675 H       
  39 H39            2.5618    -2.9976     0.7838 H       
  40 H40            4.1652    -3.3884     0.1170 H       
  41 H41            3.0326    -5.5848     1.2587 H       
  42 H42            6.5773     3.0561    -1.7914 H       
  43 H43            7.4270     2.6637    -4.1592 H       
  44 H44            7.7731     0.2209    -4.7525 H       
  45 H45            5.5256    -6.2144     5.8675 H       
  46 H46            3.3481    -9.3855     3.9528 H       
  47 H47            2.7649    -7.8028     2.1530 H       
  48 H48            5.0254    -9.6829     8.6744 H       
  49 H49            6.4941   -10.1560     7.7872 H       
  50 H50            6.5585    -8.8287     8.9714 H       
@<TRIPOS>BOND
   1    1    2 ar
   2    1    6 ar
   3    1   32 1
   4    2    3 ar
   5    2   33 1
   6    3    4 ar
   7    3   34 1
   8    4    5 ar
   9    4    7 1
  10    5    6 ar
  11    5    9 1
  12    6   35 1
  13    7    8 1
  14    7   11 1
  15    7   36 1
  16    8    9 am
  17    8   12 1
  18    9   10 2
  19   11   14 1
  20   12   13 1
  21   12   37 1
  22   12   38 1
  23   13   19 2
  24   13   22 1
  25   14   15 1
  26   14   39 1
  27   14   40 1
  28   15   16 am
  29   15   17 2
  30   16   18 1
  31   16   41 1
  32   18   23 ar
  33   18   27 ar
  34   19   20 1
  35   19   42 1
  36   20   21 2
  37   20   43 1
  38   21   22 1
  39   21   44 1
  40   23   24 ar
  41   24   25 ar
  42   24   45 1
  43   25   26 ar
  44   25   28 1
  45   26   27 ar
  46   26   46 1
  47   27   47 1
  48   28   29 2
  49   28   30 1
  50   30   31 1
  51   31   48 1
  52   31   49 1
  53   31   50 1

#	End of record

