#	Name: ASD02038572
#	Creating user name:	WinNT
#	Creation time:	15. 06. 2019 20:17

#	Modifying user name:	WinNT
#	Modification time:	15. 06. 2019 20:17

#	Program:	/corina/corina34_cracker 3.40 0067  02.08.2006

@<TRIPOS>MOLECULE
ASD02038572
  56   59    0    0    0
SMALL
NO_CHARGES


@<TRIPOS>ATOM
   1 C1            -0.0172     1.4641    -0.0077 C.3     
   2 N2             0.0026    -0.0052     0.0023 N.3     
   3 C3            -1.3592    -0.5495     0.0884 C.3     
   4 C4             0.7049    -0.5277    -1.1781 C.3     
   5 C5             2.1419    -0.0009    -1.1881 C.3     
   6 N6             2.1221     1.4685    -1.1981 N.3     
   7 C7             3.4168     1.9860    -1.2799 C.ar    
   8 C8             3.6170     3.3604    -1.3024 C.ar    
   9 C9             4.8986     3.8688    -1.3829 C.ar    
  10 C10            5.9819     3.0112    -1.4410 C.ar    
  11 C11            5.7861     1.6424    -1.4188 C.ar    
  12 C12            4.5076     1.1275    -1.3331 C.ar    
  13 C13            1.4197     1.9910    -0.0177 C.3     
  14 C14           -1.8792    -0.3986     1.5193 C.3     
  15 C15           -3.3393    -0.8515     1.5817 C.3     
  16 O16           -3.8599    -0.6022     2.8890 O.3     
  17 C17           -5.1551    -0.9495     3.1142 C.ar    
  18 C18           -5.9065    -1.5187     2.0947 C.ar    
  19 C19           -7.2221    -1.8737     2.3184 C.ar    
  20 C20           -7.7928    -1.6610     3.5635 C.ar    
  21 C21           -7.0410    -1.0896     4.5897 C.ar    
  22 C22           -5.7194    -0.7398     4.3621 C.ar    
  23 N23           -9.0636    -1.9051     4.0890 N.am    
  24 O24           -1.0927    -1.2041     2.3994 O.3     
  25 C25            7.3788     3.5695    -1.5293 C.3     
  26 C26            7.9380     3.7700    -0.1193 C.3     
  27 C27           -9.0566    -1.4930     5.3722 C.2     
  28 O28           -7.8450    -1.0027     5.6777 O.3     
  29 O29          -10.0015    -1.5556     6.1350 O.2     
  30 H30           -0.5393     1.8147    -0.8980 H       
  31 H31           -0.5314     1.8270     0.8823 H       
  32 H32           -2.0117    -0.0055    -0.5946 H       
  33 H33           -1.3466    -1.6048    -0.1843 H       
  34 H34            0.7172    -1.6170    -1.1414 H       
  35 H35            0.1911    -0.1997    -2.0817 H       
  36 H36            2.6639    -0.3515    -0.2978 H       
  37 H37            2.6560    -0.3637    -2.0781 H       
  38 H38            2.7714     4.0307    -1.2574 H       
  39 H39            5.0549     4.9372    -1.4008 H       
  40 H40            6.6343     0.9755    -1.4644 H       
  41 H41            4.3554     0.0584    -1.3155 H       
  42 H42            1.4074     3.0803    -0.0544 H       
  43 H43            1.9336     1.6630     0.8859 H       
  44 H44           -1.8095     0.6459     1.8230 H       
  45 H45           -3.9232    -0.2977     0.8465 H       
  46 H46           -3.3986    -1.9179     1.3643 H       
  47 H47           -5.4612    -1.6838     1.1247 H       
  48 H48           -7.8056    -2.3160     1.5245 H       
  49 H49           -5.1329    -0.2969     5.1535 H       
  50 H50           -9.8139    -2.2988     3.6168 H       
  51 H51           -1.1081    -2.1477     2.1882 H       
  52 H52            8.0144     2.8734    -2.0766 H       
  53 H53            7.3553     4.5267    -2.0503 H       
  54 H54            7.3024     4.4661     0.4280 H       
  55 H55            7.9615     2.8128     0.4017 H       
  56 H56            8.9484     4.1738    -0.1831 H       
@<TRIPOS>BOND
   1    1    2 1
   2    1   13 1
   3    1   30 1
   4    1   31 1
   5    2    3 1
   6    2    4 1
   7    3   14 1
   8    3   32 1
   9    3   33 1
  10    4    5 1
  11    4   34 1
  12    4   35 1
  13    5    6 1
  14    5   36 1
  15    5   37 1
  16    6    7 1
  17    6   13 1
  18    7    8 ar
  19    7   12 ar
  20    8    9 ar
  21    8   38 1
  22    9   10 ar
  23    9   39 1
  24   10   11 ar
  25   10   25 1
  26   11   12 ar
  27   11   40 1
  28   12   41 1
  29   13   42 1
  30   13   43 1
  31   14   15 1
  32   14   24 1
  33   14   44 1
  34   15   16 1
  35   15   45 1
  36   15   46 1
  37   16   17 1
  38   17   18 ar
  39   17   22 ar
  40   18   19 ar
  41   18   47 1
  42   19   20 ar
  43   19   48 1
  44   20   21 ar
  45   20   23 1
  46   21   22 ar
  47   21   28 1
  48   22   49 1
  49   23   27 am
  50   23   50 1
  51   24   51 1
  52   25   26 1
  53   25   52 1
  54   25   53 1
  55   26   54 1
  56   26   55 1
  57   26   56 1
  58   27   28 1
  59   27   29 2

#	End of record

