#	Name: ASD01882293
#	Creating user name:	WinNT
#	Creation time:	15. 06. 2019 19:44

#	Modifying user name:	WinNT
#	Modification time:	15. 06. 2019 19:44

#	Program:	/corina/corina34_cracker 3.40 0067  02.08.2006

@<TRIPOS>MOLECULE
ASD01882293
  45   47    0    0    0
SMALL
NO_CHARGES


@<TRIPOS>ATOM
   1 C1            -0.0159     1.3220     0.0093 C.2     
   2 N2             0.0021    -0.0041     0.0020 N.2     
   3 C3             1.1523    -0.6857    -0.0126 C.2     
   4 C4             2.3835     0.0173    -0.0206 C.2     
   5 C5             2.3523     1.3664    -0.0131 C.2     
   6 N6             1.1484     2.0132     0.0019 N.pl3   
   7 O7            -1.0993     2.1290     0.0184 O.3     
   8 C8             0.8540     3.4562     0.0125 C.3     
   9 C9            -0.6831     3.5211     0.0242 C.3     
  10 O10            1.1423    -1.9071    -0.0187 O.2     
  11 C11           -1.1944     4.2379    -1.2270 C.3     
  12 O12           -2.6209     4.3119    -1.1842 O.3     
  13 C13           -3.2031     4.9668    -2.3130 C.3     
  14 C14           -4.7025     4.9876    -2.1635 C.ar    
  15 C15           -5.3186     6.0464    -1.5231 C.ar    
  16 C16           -6.6940     6.0655    -1.3859 C.ar    
  17 C17           -7.4533     5.0259    -1.8896 C.ar    
  18 C18           -6.8372     3.9675    -2.5308 C.ar    
  19 C19           -5.4622     3.9506    -2.6718 C.ar    
  20 C20           -8.9526     5.0462    -1.7392 C.3     
  21 C21           -9.5181     6.2870    -2.4332 C.3     
  22 C22           -9.5464     3.7893    -2.3783 C.3     
  23 C23           -9.3157     5.0830    -0.2533 C.3     
  24 H24            3.3237    -0.5140    -0.0321 H       
  25 H25            3.2727     1.9314    -0.0185 H       
  26 H26            1.2651     3.9237     0.9072 H       
  27 H27            1.2480     3.9334    -0.8848 H       
  28 H28           -1.0396     4.0220     0.9243 H       
  29 H29           -0.7793     5.2451    -1.2639 H       
  30 H30           -0.8857     3.6850    -2.1142 H       
  31 H31           -2.8296     5.9891    -2.3724 H       
  32 H32           -2.9360     4.4290    -3.2227 H       
  33 H33           -4.7254     6.8586    -1.1296 H       
  34 H34           -7.1753     6.8924    -0.8849 H       
  35 H35           -7.4304     3.1552    -2.9240 H       
  36 H36           -4.9812     3.1255    -3.1760 H       
  37 H37           -9.2594     6.2608    -3.4918 H       
  38 H38          -10.6025     6.3017    -2.3244 H       
  39 H39           -9.0951     7.1825    -1.9779 H       
  40 H40           -9.1435     2.9053    -1.8839 H       
  41 H41          -10.6308     3.8040    -2.2695 H       
  42 H42           -9.2877     3.7631    -3.4368 H       
  43 H43           -8.8927     5.9785     0.2020 H       
  44 H44          -10.4002     5.0977    -0.1446 H       
  45 H45           -8.9129     4.1991     0.2411 H       
@<TRIPOS>BOND
   1    1    2 2
   2    1    6 1
   3    1    7 1
   4    2    3 1
   5    3    4 1
   6    3   10 2
   7    4    5 2
   8    4   24 1
   9    5    6 1
  10    5   25 1
  11    6    8 1
  12    7    9 1
  13    8    9 1
  14    8   26 1
  15    8   27 1
  16    9   11 1
  17    9   28 1
  18   11   12 1
  19   11   29 1
  20   11   30 1
  21   12   13 1
  22   13   14 1
  23   13   31 1
  24   13   32 1
  25   14   15 ar
  26   14   19 ar
  27   15   16 ar
  28   15   33 1
  29   16   17 ar
  30   16   34 1
  31   17   18 ar
  32   17   20 1
  33   18   19 ar
  34   18   35 1
  35   19   36 1
  36   20   21 1
  37   20   23 1
  38   20   22 1
  39   21   37 1
  40   21   38 1
  41   21   39 1
  42   22   40 1
  43   22   41 1
  44   22   42 1
  45   23   43 1
  46   23   44 1
  47   23   45 1

#	End of record

