#	Name: ASD01815742
#	Creating user name:	WinNT
#	Creation time:	15. 06. 2019 19:33

#	Modifying user name:	WinNT
#	Modification time:	15. 06. 2019 19:33

#	Program:	/corina/corina34_cracker 3.40 0067  02.08.2006

@<TRIPOS>MOLECULE
ASD01815742
  70   75    0    0    0
SMALL
NO_CHARGES


@<TRIPOS>ATOM
   1 C1            -0.0804     1.3874    -0.0069 C.ar    
   2 C2            -0.0722    -0.0037    -0.0170 C.ar    
   3 C3             1.1006    -0.6984    -0.0150 C.ar    
   4 C4             2.3207    -0.0052    -0.0026 C.ar    
   5 C5             2.3084     1.4110     0.0076 C.ar    
   6 C6             1.0874     2.0929     0.0052 C.ar    
   7 C7             3.5500    -0.6970    -0.0007 C.ar    
   8 C8             4.7290    -0.0304     0.0108 C.ar    
   9 C9             4.7725     1.3725     0.0212 C.ar    
  10 C10            3.5828     2.1232     0.0205 C.ar    
  11 C11            6.0448     2.1057     0.0327 C.2     
  12 N12            5.9854     3.4577     0.0413 N.am    
  13 C13            4.7876     4.0941     0.0397 C.2     
  14 N14            3.6486     3.4652     0.0292 N.2     
  15 O15            7.1124     1.5196     0.0348 O.2     
  16 C16            7.2242     4.2397     0.0530 C.3     
  17 C17            7.2656     5.1153     1.3091 C.3     
  18 C18            8.5243     5.9860     1.2735 C.3     
  19 O19            8.5225     6.7751     0.0821 O.3     
  20 C20            8.5318     6.0097    -1.1246 C.3     
  21 C21            7.2734     5.1399    -1.1854 C.3     
  22 C22            3.5516    -2.2040    -0.0111 C.3     
  23 C23            3.4360    -2.6966    -1.4306 C.ar    
  24 C24            4.5776    -2.9202    -2.1784 C.ar    
  25 C25            4.4752    -3.3717    -3.4795 C.ar    
  26 C26            3.2238    -3.6012    -4.0370 C.ar    
  27 C27            2.0791    -3.3755    -3.2831 C.ar    
  28 C28            2.1888    -2.9294    -1.9806 C.ar    
  29 O29            7.2933     4.2832     2.4705 O.3     
  30 N30            3.1166    -4.0573    -5.3528 N.3     
  31 C31            1.7094    -4.2317    -5.7366 C.3     
  32 C32            1.6277    -4.5558    -7.2321 C.3     
  33 N33            2.4953    -5.7110    -7.5079 N.am    
  34 C34            3.8858    -5.6665    -7.0309 C.3     
  35 C35            3.8787    -5.2987    -5.5433 C.3     
  36 C36            2.0282    -6.7821    -8.1795 C.2     
  37 O37            0.8540    -6.8474    -8.4758 O.2     
  38 C38            2.9651    -7.8988    -8.5621 C.3     
  39 H39           -1.0225     1.9153    -0.0133 H       
  40 H40           -1.0089    -0.5412    -0.0262 H       
  41 H41            1.0909    -1.7783    -0.0226 H       
  42 H42            1.0689     3.1727     0.0126 H       
  43 H43            5.6533    -0.5890     0.0123 H       
  44 H44            4.7788     5.1741     0.0476 H       
  45 H45            8.0817     3.5669     0.0490 H       
  46 H46            6.3822     5.7531     1.3379 H       
  47 H47            8.5373     6.6419     2.1440 H       
  48 H48            9.4080     5.3480     1.2857 H       
  49 H49            8.5503     6.6827    -1.9818 H       
  50 H50            9.4157     5.3721    -1.1439 H       
  51 H51            7.3001     4.5229    -2.0835 H       
  52 H52            6.3902     5.7783    -1.2070 H       
  53 H53            4.4810    -2.5694     0.4257 H       
  54 H54            2.7070    -2.5722     0.5712 H       
  55 H55            5.5502    -2.7412    -1.7444 H       
  56 H56            5.3672    -3.5458    -4.0631 H       
  57 H57            1.1046    -3.5530    -3.7135 H       
  58 H58            1.2992    -2.7541    -1.3938 H       
  59 H59            7.3202     4.7723     3.3043 H       
  60 H60            1.2746    -5.0501    -5.1627 H       
  61 H61            1.1603    -3.3124    -5.5331 H       
  62 H62            0.5990    -4.7986    -7.4984 H       
  63 H63            1.9660    -3.6971    -7.8118 H       
  64 H64            4.3501    -6.6436    -7.1642 H       
  65 H65            4.4413    -4.9145    -7.5913 H       
  66 H66            4.9028    -5.1531    -5.1997 H       
  67 H67            3.4137    -6.1022    -4.9722 H       
  68 H68            3.9865    -7.6215    -8.3015 H       
  69 H69            2.6870    -8.8062    -8.0260 H       
  70 H70            2.8994    -8.0764    -9.6355 H       
@<TRIPOS>BOND
   1    1    2 ar
   2    1    6 ar
   3    1   39 1
   4    2    3 ar
   5    2   40 1
   6    3    4 ar
   7    3   41 1
   8    4    5 ar
   9    4    7 ar
  10    5    6 ar
  11    5   10 ar
  12    6   42 1
  13    7    8 ar
  14    7   22 1
  15    8    9 ar
  16    8   43 1
  17    9   10 ar
  18    9   11 1
  19   10   14 1
  20   11   12 am
  21   11   15 2
  22   12   13 1
  23   12   16 1
  24   13   14 2
  25   13   44 1
  26   16   17 1
  27   16   21 1
  28   16   45 1
  29   17   18 1
  30   17   29 1
  31   17   46 1
  32   18   19 1
  33   18   47 1
  34   18   48 1
  35   19   20 1
  36   20   21 1
  37   20   49 1
  38   20   50 1
  39   21   51 1
  40   21   52 1
  41   22   23 1
  42   22   53 1
  43   22   54 1
  44   23   24 ar
  45   23   28 ar
  46   24   25 ar
  47   24   55 1
  48   25   26 ar
  49   25   56 1
  50   26   27 ar
  51   26   30 1
  52   27   28 ar
  53   27   57 1
  54   28   58 1
  55   29   59 1
  56   30   31 1
  57   30   35 1
  58   31   32 1
  59   31   60 1
  60   31   61 1
  61   32   33 1
  62   32   62 1
  63   32   63 1
  64   33   34 1
  65   33   36 am
  66   34   35 1
  67   34   64 1
  68   34   65 1
  69   35   66 1
  70   35   67 1
  71   36   37 2
  72   36   38 1
  73   38   68 1
  74   38   69 1
  75   38   70 1

#	End of record

