#	Name: ASD00069153
#	Creating user name:	WinNT
#	Creation time:	15. 06. 2019 18:29

#	Modifying user name:	WinNT
#	Modification time:	15. 06. 2019 18:29

#	Program:	/corina/corina34_cracker 3.40 0067  02.08.2006

@<TRIPOS>MOLECULE
ASD00069153
  56   59    0    0    0
SMALL
NO_CHARGES


@<TRIPOS>ATOM
   1 C1            -0.0969     1.1971    -0.5381 C.2     
   2 N2             0.0007    -0.0057    -0.0192 N.2     
   3 C3             1.2457    -0.4633    -0.2063 C.2     
   4 C4             1.9558     0.5084    -0.8767 C.2     
   5 N5             1.1101     1.5422    -1.0803 N.pl3   
   6 C6            -1.3104     2.0348    -0.5413 C.2     
   7 O7            -1.2865     3.1378    -1.0532 O.2     
   8 N8            -2.4459     1.5783     0.0231 N.am    
   9 C9             3.5027    -3.2912     0.3710 C.ar    
  10 N10            3.0324    -2.1235    -0.0146 N.ar    
  11 C11            1.7669    -1.7804     0.2309 C.ar    
  12 C12            0.9425    -2.6791     0.9053 C.ar    
  13 C13            1.4818    -3.9032     1.2947 C.ar    
  14 N14            2.7550    -4.1677     1.0107 N.ar    
  15 C15            4.9371    -3.6383     0.0662 C.3     
  16 N16            0.7041    -4.8318     1.9684 N.pl3   
  17 C17           -3.5629     2.4166     0.1261 C.ar    
  18 C18           -4.8477     1.8854     0.0207 C.ar    
  19 C19           -5.9508     2.7223     0.1236 C.ar    
  20 C20           -5.7722     4.0793     0.3303 C.ar    
  21 C21           -4.4973     4.6045     0.4346 C.ar    
  22 C22           -3.3941     3.7771     0.3389 C.ar    
  23 F23           -7.1978     2.2126     0.0218 F       
  24 N24           -5.0250     0.5118    -0.1889 N.3     
  25 C25           -5.7949    -0.0925     0.9058 C.3     
  26 C26           -5.8443    -1.6106     0.7192 C.3     
  27 C27           -6.4971    -1.9334    -0.6278 C.3     
  28 C28           -5.7040    -1.2525    -1.7467 C.3     
  29 C29           -5.6587     0.2552    -1.4885 C.3     
  30 C30           -6.4943    -3.4475    -0.8475 C.3     
  31 N31           -7.2261    -3.7646    -2.0812 N.3     
  32 H32            2.9905     0.4541    -1.1814 H       
  33 H33            1.3205     2.3760    -1.5289 H       
  34 H34           -2.4895     0.6689     0.3580 H       
  35 H35           -0.0868    -2.4331     1.1205 H       
  36 H36            5.5731    -3.3096     0.8881 H       
  37 H37            5.0316    -4.7172    -0.0572 H       
  38 H38            5.2443    -3.1393    -0.8529 H       
  39 H39           -0.2229    -4.6315     2.1720 H       
  40 H40            1.0868    -5.6819     2.2362 H       
  41 H41           -6.6307     4.7296     0.4099 H       
  42 H42           -4.3632     5.6640     0.5955 H       
  43 H43           -2.4002     4.1905     0.4257 H       
  44 H44           -5.3177     0.1411     1.8576 H       
  45 H45           -6.8090     0.3072     0.9004 H       
  46 H46           -4.8313    -2.0127     0.7383 H       
  47 H47           -6.4290    -2.0573     1.5233 H       
  48 H48           -7.5231    -1.5655    -0.6327 H       
  49 H49           -4.6888    -1.6490    -1.7663 H       
  50 H50           -6.1885    -1.4434    -2.7042 H       
  51 H51           -6.6734     0.6533    -1.4827 H       
  52 H52           -5.0826     0.7414    -2.2758 H       
  53 H53           -5.4666    -3.8003    -0.9338 H       
  54 H54           -6.9771    -3.9382    -0.0024 H       
  55 H55           -7.2385    -4.7596    -2.2487 H       
  56 H56           -8.1629    -3.3911    -2.0521 H       
@<TRIPOS>BOND
   1    1    2 2
   2    1    5 1
   3    1    6 1
   4    2    3 1
   5    3    4 2
   6    3   11 1
   7    4    5 1
   8    4   32 1
   9    5   33 1
  10    6    7 2
  11    6    8 am
  12    8   17 1
  13    8   34 1
  14    9   10 ar
  15    9   14 ar
  16    9   15 1
  17   10   11 ar
  18   11   12 ar
  19   12   13 ar
  20   12   35 1
  21   13   14 ar
  22   13   16 1
  23   15   36 1
  24   15   37 1
  25   15   38 1
  26   16   39 1
  27   16   40 1
  28   17   18 ar
  29   17   22 ar
  30   18   19 ar
  31   18   24 1
  32   19   20 ar
  33   19   23 1
  34   20   21 ar
  35   20   41 1
  36   21   22 ar
  37   21   42 1
  38   22   43 1
  39   24   25 1
  40   24   29 1
  41   25   26 1
  42   25   44 1
  43   25   45 1
  44   26   27 1
  45   26   46 1
  46   26   47 1
  47   27   28 1
  48   27   30 1
  49   27   48 1
  50   28   29 1
  51   28   49 1
  52   28   50 1
  53   29   51 1
  54   29   52 1
  55   30   31 1
  56   30   53 1
  57   30   54 1
  58   31   55 1
  59   31   56 1

#	End of record

