#	Name: ASD01940501
#	Creating user name:	WinNT
#	Creation time:	15. 06. 2019 20:12

#	Modifying user name:	WinNT
#	Modification time:	15. 06. 2019 20:12

#	Program:	/corina/corina34_cracker 3.40 0067  02.08.2006

@<TRIPOS>MOLECULE
ASD01940501
  29   29    0    0    0
SMALL
NO_CHARGES


@<TRIPOS>ATOM
   1 C1            -0.5349     1.8464     0.1150 C.ar    
   2 C2            -0.1740     0.5169     0.2555 C.ar    
   3 C3             1.1633     0.1638     0.3133 C.ar    
   4 C4             2.1415     1.1394     0.2307 C.ar    
   5 C5             1.7815     2.4712     0.0895 C.ar    
   6 C6             0.4410     2.8237     0.0317 C.ar    
   7 N7             3.5712     0.7615     0.2936 N.pl3   
   8 O8             4.1774     0.4993    -0.7298 O.2     
   9 O9             4.1416     0.7128     1.3687 O.2     
  10 O10            2.7409     3.4302     0.0088 O.3     
  11 C11            2.2976     4.7809    -0.1358 C.3     
  12 F12            1.5137    -1.1337     0.4509 F       
  13 F13           -1.8403     2.1888     0.0535 F       
  14 C14           -1.2380    -0.5464     0.3460 C.3     
  15 O15           -2.3896    -0.1321    -0.3917 O.3     
  16 C16           -3.5671    -0.8890    -0.1047 C.3     
  17 O17           -0.7375    -1.7688    -0.1992 O.3     
  18 C18           -1.4352    -2.9332     0.2474 C.3     
  19 H19            0.1592     3.8605    -0.0782 H       
  20 H20            3.1616     5.4433    -0.1881 H       
  21 H21            1.7116     4.8751    -1.0501 H       
  22 H22            1.6813     5.0547     0.7205 H       
  23 H23           -1.5111    -0.6992     1.3902 H       
  24 H24           -3.5431    -1.8243    -0.6639 H       
  25 H25           -3.6090    -1.1050     0.9629 H       
  26 H26           -4.4475    -0.3152    -0.3941 H       
  27 H27           -1.4947    -2.9260     1.3357 H       
  28 H28           -2.4415    -2.9368    -0.1715 H       
  29 H29           -0.9016    -3.8250    -0.0815 H       
@<TRIPOS>BOND
   1    1    2 ar
   2    1    6 ar
   3    1   13 1
   4    2    3 ar
   5    2   14 1
   6    3    4 ar
   7    3   12 1
   8    4    5 ar
   9    4    7 1
  10    5    6 ar
  11    5   10 1
  12    6   19 1
  13    7    8 2
  14    7    9 2
  15   10   11 1
  16   11   20 1
  17   11   21 1
  18   11   22 1
  19   14   15 1
  20   14   17 1
  21   14   23 1
  22   15   16 1
  23   16   24 1
  24   16   25 1
  25   16   26 1
  26   17   18 1
  27   18   27 1
  28   18   28 1
  29   18   29 1

#	End of record

