#	Name: ASD05430686
#	Creating user name:	WinNT
#	Creation time:	15. 06. 2019 21:00

#	Modifying user name:	WinNT
#	Modification time:	15. 06. 2019 21:00

#	Program:	/corina/corina34_cracker 3.40 0067  02.08.2006

@<TRIPOS>MOLECULE
ASD05430686
  24   24    0    0    0
SMALL
NO_CHARGES


@<TRIPOS>ATOM
   1 C1            -0.0167     1.3780     0.0096 C.ar    
   2 C2             0.0021    -0.0041     0.0020 C.ar    
   3 C3            -1.1867    -0.7134     0.0091 C.ar    
   4 C4            -2.4127     1.3490     0.0439 C.ar    
   5 C5            -1.2218     2.0546     0.0305 C.ar    
   6 C6             1.2786     2.1482     0.0014 C.3     
   7 C7            -2.3962    -0.0368     0.0243 C.ar    
   8 C8             2.0736     1.7956    -1.2574 C.3     
   9 C9             0.9799     3.6487     0.0123 C.3     
  10 C10            2.0975     1.7822     1.2409 C.3     
  11 F11           -3.5573    -0.7273     0.0369 F       
  12 F12           -1.1678    -2.0642     0.0008 F       
  13 F13           -3.5903     2.0108     0.0643 F       
  14 H14            0.9448    -0.5309    -0.0098 H       
  15 H15           -1.2342     3.1345     0.0458 H       
  16 H16            1.4903     2.0564    -2.1405 H       
  17 H17            3.0105     2.3527    -1.2634 H       
  18 H18            2.2865     0.7266    -1.2652 H       
  19 H19            0.4135     3.8999     0.9091 H       
  20 H20            1.9168     4.2058     0.0063 H       
  21 H21            0.3965     3.9095    -0.8708 H       
  22 H22            2.3103     0.7132     1.2331 H       
  23 H23            3.0344     2.3393     1.2350 H       
  24 H24            1.5311     2.0334     2.1377 H       
@<TRIPOS>BOND
   1    1    2 ar
   2    1    6 1
   3    1    5 ar
   4    2    3 ar
   5    2   14 1
   6    3   12 1
   7    3    7 ar
   8    4    5 ar
   9    4   13 1
  10    4    7 ar
  11    5   15 1
  12    6    8 1
  13    6    9 1
  14    6   10 1
  15    7   11 1
  16    8   16 1
  17    8   17 1
  18    8   18 1
  19    9   19 1
  20    9   20 1
  21    9   21 1
  22   10   22 1
  23   10   23 1
  24   10   24 1

#	End of record

