#	Name: ASD01209235
#	Creating user name:	WinNT
#	Creation time:	15. 06. 2019 19:11

#	Modifying user name:	WinNT
#	Modification time:	15. 06. 2019 19:11

#	Program:	/corina/corina34_cracker 3.40 0067  02.08.2006

@<TRIPOS>MOLECULE
ASD01209235
  68   71    0    0    0
SMALL
NO_CHARGES


@<TRIPOS>ATOM
   1 O1            -2.3997     4.2738     0.0767 O.3     
   2 O2            -0.1757     4.1630     1.4743 O.3     
   3 C3             8.4123     8.6128     2.7273 C.ar    
   4 C4             8.0441     8.6846     4.0631 C.ar    
   5 C5             6.7288     8.4508     4.4377 C.ar    
   6 C6             5.7772     8.1445     3.4784 C.ar    
   7 C7             6.1433     8.0714     2.1342 C.ar    
   8 C8             7.4663     8.3129     1.7613 C.ar    
   9 O9             6.3734     8.5223     5.7474 O.3     
  10 C10            5.1315     7.7449     1.1072 C.2     
  11 N11            3.8533     7.5174     1.4688 N.am    
  12 O12            5.4524     7.6816    -0.0636 O.2     
  13 C13            2.9026     7.2107     0.5038 C.2     
  14 P14           -0.8251     4.6094     0.0704 P.3     
  15 O15           -0.1683     3.8738    -1.0331 O.2     
  16 C16           -0.5867     6.4011    -0.1670 C.3     
  17 N17            1.6504     6.9751     0.7434 N.2     
  18 S18            3.2117     7.0960    -1.1738 S.3     
  19 C19            1.5198     6.7039    -1.4695 C.2     
  20 C20            0.8849     6.6993    -0.2958 C.2     
  21 O21            9.7021     8.8427     2.3657 O.3     
  22 C22           10.6487     9.0257     3.4203 C.3     
  23 C23            6.3555     7.3700     6.4674 C.ar    
  24 C24            5.9311     7.3825     7.7884 C.ar    
  25 C25            5.9134     6.2096     8.5180 C.ar    
  26 C26            6.3181     5.0239     7.9330 C.ar    
  27 C27            6.7415     5.0088     6.6168 C.ar    
  28 C28            6.7561     6.1779     5.8812 C.ar    
  29 S29            6.2949     3.5298     8.8666 S.o2    
  30 O30            7.2854     2.7171     8.2521 O.2     
  31 O31            6.4310     3.9569    10.2150 O.2     
  32 C32            4.6405     2.8429     8.5803 C.3     
  33 C33           12.0876     8.6279     3.0406 C.3     
  34 O34           12.4801     9.8402     3.7151 O.3     
  35 C35           11.1937    10.4626     3.5246 C.3     
  36 C36           -0.1066     2.8012     1.9019 C.3     
  37 C37            0.5666     2.7310     3.2740 C.3     
  38 C38           -2.9111     2.9409     0.1395 C.3     
  39 C39           -4.4406     2.9803     0.1275 C.3     
  40 H40            8.7835     8.9227     4.8134 H       
  41 H41            4.7537     7.9620     3.7709 H       
  42 H42            7.7539     8.2572     0.7218 H       
  43 H43            3.5972     7.5680     2.4031 H       
  44 H44           -1.1025     6.7194    -1.0729 H       
  45 H45           -0.9927     6.9384     0.6901 H       
  46 H46            1.0737     6.5056    -2.4328 H       
  47 H47           10.3134     8.6100     4.3705 H       
  48 H48            5.6152     8.3084     8.2460 H       
  49 H49            5.5835     6.2188     9.5463 H       
  50 H50            7.0574     4.0814     6.1623 H       
  51 H51            7.0869     6.1656     4.8532 H       
  52 H52            4.5028     2.6591     7.5148 H       
  53 H53            4.5367     1.9057     9.1271 H       
  54 H54            3.8881     3.5511     8.9271 H       
  55 H55           12.4372     7.7184     3.5291 H       
  56 H56           12.2794     8.6383     1.9676 H       
  57 H57           11.1125    11.0333     2.5995 H       
  58 H58           10.8343    11.0083     4.3971 H       
  59 H59           -1.1139     2.3903     1.9700 H       
  60 H60            0.4736     2.2235     1.1825 H       
  61 H61           -0.0137     3.3087     3.9935 H       
  62 H62            0.6192     1.6922     3.6002 H       
  63 H63            1.5739     3.1419     3.2060 H       
  64 H64           -2.5555     2.3743    -0.7211 H       
  65 H65           -2.5672     2.4626     1.0567 H       
  66 H66           -4.7962     3.5469     0.9881 H       
  67 H67           -4.7845     3.4586    -0.7897 H       
  68 H68           -4.8307     1.9637     0.1754 H       
@<TRIPOS>BOND
   1    1   38 1
   2    1   14 1
   3    2   36 1
   4    2   14 1
   5    3    4 ar
   6    3   21 1
   7    3    8 ar
   8    4    5 ar
   9    4   40 1
  10    5    6 ar
  11    5    9 1
  12    6    7 ar
  13    6   41 1
  14    7    8 ar
  15    7   10 1
  16    8   42 1
  17    9   23 1
  18   10   11 am
  19   10   12 2
  20   11   13 1
  21   11   43 1
  22   13   17 2
  23   13   18 1
  24   14   15 2
  25   14   16 1
  26   16   20 1
  27   16   44 1
  28   16   45 1
  29   17   20 1
  30   18   19 1
  31   19   20 2
  32   19   46 1
  33   21   22 1
  34   22   33 1
  35   22   35 1
  36   22   47 1
  37   23   24 ar
  38   23   28 ar
  39   24   25 ar
  40   24   48 1
  41   25   26 ar
  42   25   49 1
  43   26   27 ar
  44   26   29 1
  45   27   28 ar
  46   27   50 1
  47   28   51 1
  48   29   30 2
  49   29   31 2
  50   29   32 1
  51   32   52 1
  52   32   53 1
  53   32   54 1
  54   33   34 1
  55   33   55 1
  56   33   56 1
  57   34   35 1
  58   35   57 1
  59   35   58 1
  60   36   37 1
  61   36   59 1
  62   36   60 1
  63   37   61 1
  64   37   62 1
  65   37   63 1
  66   38   39 1
  67   38   64 1
  68   38   65 1
  69   39   66 1
  70   39   67 1
  71   39   68 1

#	End of record

