#	Name: ASD09116006
#	Creating user name:	WinNT
#	Creation time:	15. 06. 2019 21:20

#	Modifying user name:	WinNT
#	Modification time:	15. 06. 2019 21:20

#	Program:	/corina/corina34_cracker 3.40 0067  02.08.2006

@<TRIPOS>MOLECULE
ASD09116006
  76   83    0    0    0
SMALL
NO_CHARGES


@<TRIPOS>ATOM
   1 C1            -0.2438     1.6060     0.2739 C.ar    
   2 C2            -0.2647     0.2289     0.1854 C.ar    
   3 C3             0.9277    -0.4745     0.0241 C.ar    
   4 C4             2.1352     0.2181    -0.0469 C.ar    
   5 C5             2.1439     1.5953     0.0427 C.ar    
   6 C6             0.9574     2.2881     0.2028 C.ar    
   7 C7             0.9119    -1.9544    -0.0712 C.ar    
   8 C8             0.2271    -2.7398     0.8658 C.ar    
   9 C9             0.2398    -4.1213     0.7363 C.ar    
  10 N10            0.8897    -4.7179    -0.2596 N.ar    
  11 C11            1.5355    -4.0175    -1.1464 C.ar    
  12 C12            1.5694    -2.6206    -1.0948 C.ar    
  13 C13            2.3113    -4.5807    -2.3230 C.3     
  14 C14            1.7112    -3.9269    -3.5848 C.3     
  15 C15            1.7229    -2.4052    -3.4230 C.3     
  16 N16            2.3074    -2.0279    -2.1253 N.3     
  17 N17           -0.4446    -4.9030     1.6725 N.pl3   
  18 N18           -0.7555    -4.5506     2.9957 N.2     
  19 C19           -1.3998    -5.5652     3.5207 C.2     
  20 N20           -1.5106    -6.5329     2.6033 N.2     
  21 C21           -0.9432    -6.1462     1.4807 C.2     
  22 N22           -1.8899    -5.6260     4.8257 N.pl3   
  23 C23           -2.6599    -6.7190     5.2328 C.ar    
  24 C24           -2.6675    -7.1252     6.5631 C.ar    
  25 C25           -3.4373    -7.4178     4.3178 C.ar    
  26 N26           -4.1580    -8.4473     4.7035 N.ar    
  27 C27           -4.1830    -8.8693     5.9614 C.ar    
  28 C28           -3.4466    -8.2178     6.9258 C.ar    
  29 C29           -5.0363   -10.0718     6.2751 C.3     
  30 C30           -5.3094   -10.1598     7.7750 C.3     
  31 C31           -3.9721   -10.0632     8.5185 C.3     
  32 C32           -3.4455    -8.6350     8.3719 C.3     
  33 C33           -4.1816   -10.3842     9.9997 C.3     
  34 N34           -0.8633    -6.8832     0.3141 N.pl3   
  35 C35            3.7010    -2.5110    -2.0660 C.3     
  36 C36            3.7484    -4.0362    -2.1894 C.3     
  37 C37           -4.7424   -11.8086    10.1562 C.3     
  38 C38           -3.7117   -12.5991    10.9884 C.3     
  39 C39           -2.9413   -11.5089    11.7739 C.3     
  40 C40           -2.8296   -10.3589    10.7423 C.3     
  41 H41           -1.1676     2.1524     0.3944 H       
  42 H42           -1.2031    -0.3027     0.2414 H       
  43 H43            3.0621    -0.3219    -0.1715 H       
  44 H44            3.0789     2.1330    -0.0121 H       
  45 H45            0.9690     3.3658     0.2726 H       
  46 H46           -0.3055    -2.2740     1.6817 H       
  47 H47            2.2719    -5.6692    -2.3622 H       
  48 H48            2.3051    -4.2045    -4.4556 H       
  49 H49            0.6855    -4.2703    -3.7194 H       
  50 H50            2.3119    -1.9626    -4.2262 H       
  51 H51            0.7011    -2.0298    -3.4779 H       
  52 H52           -1.6962    -4.9096     5.4504 H       
  53 H53           -2.0781    -6.6012     7.3011 H       
  54 H54           -3.4500    -7.1127     3.2819 H       
  55 H55           -5.9832    -9.9896     5.7416 H       
  56 H56           -4.5187   -10.9744     5.9504 H       
  57 H57           -5.9573    -9.3374     8.0783 H       
  58 H58           -5.7884   -11.1115     8.0049 H       
  59 H59           -3.2604   -10.7670     8.0869 H       
  60 H60           -2.4272    -8.5858     8.7576 H       
  61 H61           -4.0792    -7.9576     8.9444 H       
  62 H62           -4.8664    -9.6623    10.4447 H       
  63 H63           -1.2473    -7.7731     0.2753 H       
  64 H64           -0.4230    -6.5106    -0.4658 H       
  65 H65            4.2703    -2.0682    -2.8833 H       
  66 H66            4.1450    -2.2131    -1.1162 H       
  67 H67            4.2164    -4.4596    -1.3007 H       
  68 H68            4.3256    -4.3134    -3.0716 H       
  69 H69           -5.6990   -11.7780    10.6779 H       
  70 H70           -4.8654   -12.2711     9.1769 H       
  71 H71           -4.2164   -13.2790    11.6748 H       
  72 H72           -3.0345   -13.1487    10.3346 H       
  73 H73           -3.5081   -11.1896    12.6484 H       
  74 H74           -1.9528   -11.8664    12.0622 H       
  75 H75           -2.0099   -10.5467    10.0488 H       
  76 H76           -2.6906    -9.4040    11.2491 H       
@<TRIPOS>BOND
   1    1    2 ar
   2    1    6 ar
   3    1   41 1
   4    2    3 ar
   5    2   42 1
   6    3    4 ar
   7    3    7 1
   8    4    5 ar
   9    4   43 1
  10    5    6 ar
  11    5   44 1
  12    6   45 1
  13    7    8 ar
  14    7   12 ar
  15    8    9 ar
  16    8   46 1
  17    9   10 ar
  18    9   17 1
  19   10   11 ar
  20   11   12 ar
  21   11   13 1
  22   12   16 1
  23   13   14 1
  24   13   36 1
  25   13   47 1
  26   14   15 1
  27   14   48 1
  28   14   49 1
  29   15   16 1
  30   15   50 1
  31   15   51 1
  32   16   35 1
  33   17   18 1
  34   17   21 1
  35   18   19 2
  36   19   20 1
  37   19   22 1
  38   20   21 2
  39   21   34 1
  40   22   23 1
  41   22   52 1
  42   23   24 ar
  43   23   25 ar
  44   24   28 ar
  45   24   53 1
  46   25   26 ar
  47   25   54 1
  48   26   27 ar
  49   27   28 ar
  50   27   29 1
  51   28   32 1
  52   29   30 1
  53   29   55 1
  54   29   56 1
  55   30   31 1
  56   30   57 1
  57   30   58 1
  58   31   32 1
  59   31   33 1
  60   31   59 1
  61   32   60 1
  62   32   61 1
  63   33   37 1
  64   33   40 1
  65   33   62 1
  66   34   63 1
  67   34   64 1
  68   35   36 1
  69   35   65 1
  70   35   66 1
  71   36   67 1
  72   36   68 1
  73   37   38 1
  74   37   69 1
  75   37   70 1
  76   38   39 1
  77   38   71 1
  78   38   72 1
  79   39   40 1
  80   39   73 1
  81   39   74 1
  82   40   75 1
  83   40   76 1

#	End of record

