#	Name: ASD03731764
#	Creating user name:	WinNT
#	Creation time:	15. 06. 2019 20:46

#	Modifying user name:	WinNT
#	Modification time:	15. 06. 2019 20:46

#	Program:	/corina/corina34_cracker 3.40 0067  02.08.2006

@<TRIPOS>MOLECULE
ASD03731764
  37   38    0    0    0
SMALL
NO_CHARGES


@<TRIPOS>ATOM
   1 C1             0.3760     1.0883     1.9843 C.2     
   2 C2             0.2923    -0.2844     1.4566 C.ar    
   3 C3             1.3791    -0.8406     0.7653 C.ar    
   4 C4             1.2919    -2.1325     0.2723 C.ar    
   5 C5             0.1318    -2.8717     0.4633 C.ar    
   6 C6            -0.9460    -2.3201     1.1485 C.ar    
   7 C7            -0.8685    -1.0403     1.6479 C.ar    
   8 O8             1.3886     1.7419     1.8209 O.2     
   9 N9            -0.6716     1.6220     2.6432 N.am    
  10 S10           -0.5775     3.1653     3.2364 S.o2    
  11 O11           -1.8292     3.3715     3.8767 O.2     
  12 O12            0.6356     3.1831     3.9762 O.2     
  13 C13           -0.4380     4.2100     1.7599 C.3     
  14 O14            2.5114    -0.1157     0.5797 O.3     
  15 C15            3.5199    -0.2184     1.5868 C.3     
  16 F16            2.3351    -2.6729    -0.3946 F       
  17 O17            0.0491    -4.1373    -0.0208 O.3     
  18 C18           -1.1392    -4.7868     0.0912 C.ar    
  19 C19           -2.0929    -4.6680    -0.9097 C.ar    
  20 C20           -3.3010    -5.3298    -0.7932 C.ar    
  21 C21           -3.5590    -6.1096     0.3209 C.ar    
  22 C22           -2.6099    -6.2288     1.3187 C.ar    
  23 C23           -1.3986    -5.5742     1.2037 C.ar    
  24 Cl24          -4.4952    -5.1822    -2.0445 Cl      
  25 H25           -1.8455    -2.9003     1.2929 H       
  26 H26           -1.7058    -0.6179     2.1835 H       
  27 H27           -1.4806     1.1022     2.7700 H       
  28 H28           -1.3167     4.0688     1.1306 H       
  29 H29           -0.3702     5.2557     2.0599 H       
  30 H30            0.4566     3.9332     1.2022 H       
  31 H31            4.3690     0.4092     1.3161 H       
  32 H32            3.1138     0.1123     2.5427 H       
  33 H33            3.8462    -1.2551     1.6698 H       
  34 H34           -1.8918    -4.0590    -1.7786 H       
  35 H35           -4.5036    -6.6255     0.4108 H       
  36 H36           -2.8136    -6.8379     2.1870 H       
  37 H37           -0.6559    -5.6715     1.9817 H       
@<TRIPOS>BOND
   1    1    2 1
   2    1    8 2
   3    1    9 am
   4    2    3 ar
   5    2    7 ar
   6    3    4 ar
   7    3   14 1
   8    4    5 ar
   9    4   16 1
  10    5    6 ar
  11    5   17 1
  12    6    7 ar
  13    6   25 1
  14    7   26 1
  15    9   10 am
  16    9   27 1
  17   10   11 2
  18   10   12 2
  19   10   13 1
  20   13   28 1
  21   13   29 1
  22   13   30 1
  23   14   15 1
  24   15   31 1
  25   15   32 1
  26   15   33 1
  27   17   18 1
  28   18   19 ar
  29   18   23 ar
  30   19   20 ar
  31   19   34 1
  32   20   21 ar
  33   20   24 1
  34   21   22 ar
  35   21   35 1
  36   22   23 ar
  37   22   36 1
  38   23   37 1

#	End of record

