#	Name: ASD01890311
#	Creating user name:	WinNT
#	Creation time:	15. 06. 2019 19:50

#	Modifying user name:	WinNT
#	Modification time:	15. 06. 2019 19:50

#	Program:	/corina/corina34_cracker 3.40 0067  02.08.2006

@<TRIPOS>MOLECULE
ASD01890311
  37   39    0    0    0
SMALL
NO_CHARGES


@<TRIPOS>ATOM
   1 C1            -0.8634    -0.2180    -1.0815 C.2     
   2 C2            -0.0695     0.1286     0.1516 C.3     
   3 C3             1.2898    -0.5715     0.0965 C.3     
   4 C4             2.1534    -0.1015     1.2687 C.3     
   5 O5            -0.3535    -0.8630    -1.9669 O.2     
   6 O6            -2.1388     0.1850    -1.1939 O.3     
   7 C7             1.0908    -2.0627     0.1853 C.ar    
   8 C8             1.5227    -2.8800    -0.8425 C.ar    
   9 C9             1.3401    -4.2479    -0.7610 C.ar    
  10 C10            0.7260    -4.7983     0.3484 C.ar    
  11 C11            0.2950    -3.9811     1.3765 C.ar    
  12 C12            0.4815    -2.6136     1.2970 C.ar    
  13 C13            2.4657     1.3639     1.1068 C.2     
  14 N14            3.0288     1.8947     0.0611 N.2     
  15 C15            3.1629     3.2337     0.2449 C.ar    
  16 C16            2.6328     3.5281     1.5125 C.ar    
  17 N17            2.1943     2.3251     2.0306 N.pl3   
  18 C18            3.6873     4.2650    -0.5385 C.ar    
  19 C19            3.6800     5.5571    -0.0621 C.ar    
  20 C20            3.1550     5.8430     1.1923 C.ar    
  21 C21            2.6332     4.8357     1.9773 C.ar    
  22 Cl22           3.1560     7.4782     1.7754 Cl      
  23 Cl23           4.3317     6.8381    -1.0358 Cl      
  24 H24            0.0791     1.2075     0.1967 H       
  25 H25           -0.6122    -0.2008     1.0376 H       
  26 H26            1.7869    -0.3266    -0.8422 H       
  27 H27            1.6138    -0.2570     2.2029 H       
  28 H28            3.0826    -0.6712     1.2867 H       
  29 H29           -2.6075    -0.0614    -2.0030 H       
  30 H30            2.0024    -2.4500    -1.7092 H       
  31 H31            1.6769    -4.8864    -1.5643 H       
  32 H32            0.5827    -5.8669     0.4117 H       
  33 H33           -0.1851    -4.4111     2.2431 H       
  34 H34            0.1480    -1.9755     2.1020 H       
  35 H35            1.7733     2.1903     2.8940 H       
  36 H36            4.0975     4.0495    -1.5140 H       
  37 H37            2.2264     5.0641     2.9513 H       
@<TRIPOS>BOND
   1    1    2 1
   2    1    5 2
   3    1    6 1
   4    2    3 1
   5    2   24 1
   6    2   25 1
   7    3    4 1
   8    3    7 1
   9    3   26 1
  10    4   13 1
  11    4   27 1
  12    4   28 1
  13    6   29 1
  14    7    8 ar
  15    7   12 ar
  16    8    9 ar
  17    8   30 1
  18    9   10 ar
  19    9   31 1
  20   10   11 ar
  21   10   32 1
  22   11   12 ar
  23   11   33 1
  24   12   34 1
  25   13   14 2
  26   13   17 1
  27   14   15 1
  28   15   16 ar
  29   15   18 ar
  30   16   17 1
  31   16   21 ar
  32   17   35 1
  33   18   19 ar
  34   18   36 1
  35   19   20 ar
  36   19   23 1
  37   20   21 ar
  38   20   22 1
  39   21   37 1

#	End of record

