#	Name: ASD07300653
#	Creating user name:	WinNT
#	Creation time:	15. 06. 2019 21:10

#	Modifying user name:	WinNT
#	Modification time:	15. 06. 2019 21:10

#	Program:	/corina/corina34_cracker 3.40 0067  02.08.2006

@<TRIPOS>MOLECULE
ASD07300653
  34   37    0    0    0
SMALL
NO_CHARGES


@<TRIPOS>ATOM
   1 C1            -0.0035     1.3932     0.2412 C.2     
   2 C2             0.0021    -0.0041     0.0020 C.2     
   3 N3             1.1907     2.0695     0.2266 N.pl3   
   4 N4             1.1445    -0.6195    -0.2275 N.2     
   5 C5             2.3029     0.0487    -0.2396 C.2     
   6 C6             2.3488     1.3766    -0.0175 C.2     
   7 N7            -0.9638     2.2632     0.4998 N.2     
   8 C8            -0.4279     3.4759     0.6454 C.2     
   9 C9             0.9137     3.3770     0.4800 C.2     
  10 N10           -1.1857    -0.7180     0.0100 N.pl3   
  11 C11           -2.4812    -0.0316     0.1360 C.3     
  12 C12           -3.4036    -0.5307    -0.9821 C.3     
  13 O13           -3.4376    -1.9598    -0.9615 O.3     
  14 C14           -2.1740    -2.5790    -1.2141 C.3     
  15 C15           -1.1890    -2.1843    -0.1135 C.3     
  16 C16           -1.1862     4.7425     0.9485 C.3     
  17 C17           -2.2554     5.1827    -0.0534 C.3     
  18 C18           -2.6684     4.6105     1.3041 C.3     
  19 Br19           2.1656     4.7904     0.5856 Br      
  20 H20            3.2207    -0.4875    -0.4312 H       
  21 H21            3.2961     1.8950    -0.0326 H       
  22 H22           -2.9240    -0.2584     1.1058 H       
  23 H23           -2.3373     1.0446     0.0402 H       
  24 H24           -4.4092    -0.1403    -0.8259 H       
  25 H25           -3.0253    -0.1894    -1.9457 H       
  26 H26           -2.2951    -3.6622    -1.2248 H       
  27 H27           -1.7913    -2.2451    -2.1785 H       
  28 H28           -0.1898    -2.5330    -0.3744 H       
  29 H29           -1.4995    -2.6316     0.8308 H       
  30 H30           -0.6153     5.5233     1.4510 H       
  31 H31           -2.3882     6.2532    -0.2099 H       
  32 H32           -2.4104     4.5562    -0.9319 H       
  33 H33           -3.0951     3.6076     1.3188 H       
  34 H34           -3.0730     5.3046     2.0408 H       
@<TRIPOS>BOND
   1    1    2 1
   2    1    3 1
   3    1    7 2
   4    2    4 2
   5    2   10 1
   6    3    6 1
   7    3    9 1
   8    4    5 1
   9    5    6 2
  10    5   20 1
  11    6   21 1
  12    7    8 1
  13    8    9 2
  14    8   16 1
  15    9   19 1
  16   10   11 1
  17   10   15 1
  18   11   12 1
  19   11   22 1
  20   11   23 1
  21   12   13 1
  22   12   24 1
  23   12   25 1
  24   13   14 1
  25   14   15 1
  26   14   26 1
  27   14   27 1
  28   15   28 1
  29   15   29 1
  30   16   17 1
  31   16   18 1
  32   16   30 1
  33   17   18 1
  34   17   31 1
  35   17   32 1
  36   18   33 1
  37   18   34 1

#	End of record

