#	Name: ASD08710016
#	Creating user name:	WinNT
#	Creation time:	15. 06. 2019 21:19

#	Modifying user name:	WinNT
#	Modification time:	15. 06. 2019 21:19

#	Program:	/corina/corina34_cracker 3.40 0067  02.08.2006

@<TRIPOS>MOLECULE
ASD08710016
  43   45    0    0    0
SMALL
NO_CHARGES


@<TRIPOS>ATOM
   1 C1            -0.8727    -0.2501    -1.4218 C.ar    
   2 C2            -0.6190    -1.5711    -1.1035 C.ar    
   3 C3             0.1763     0.6354    -1.5845 C.ar    
   4 C4             1.4790     0.1999    -1.4289 C.ar    
   5 C5             1.7327    -1.1211    -1.1102 C.ar    
   6 C6             0.6837    -2.0067    -0.9479 C.ar    
   7 S7             1.0071    -3.6903    -0.5410 S.o2    
   8 O8            -0.1242    -4.4325    -0.9752 O.2     
   9 O9             2.3306    -3.9623    -0.9809 O.2     
  10 N10            1.0317    -3.7993     1.1112 N.am    
  11 C11           -0.1996    -4.0865     1.8604 C.3     
  12 C12            2.2865    -3.6166     1.8542 C.3     
  13 C13            2.5193    -4.8512     2.7340 C.3     
  14 N14            1.2869    -5.1328     3.4835 N.am    
  15 C15            0.0384    -5.3200     2.7401 C.3     
  16 C16           -0.1003     2.0755    -1.9320 C.3     
  17 F17           -0.2396     2.8205    -0.7561 F       
  18 F18            0.9629     2.5861    -2.6845 F       
  19 F19           -1.2810     2.1567    -2.6781 F       
  20 C20            1.3071    -5.2224     4.8282 C.2     
  21 C21            0.0376    -5.3503     5.5813 C.ar    
  22 O22            2.3666    -5.1983     5.4228 O.2     
  23 N23           -1.1026    -4.9695     5.0185 N.ar    
  24 C24           -2.2514    -5.0660     5.6520 C.ar    
  25 C25           -2.3137    -5.5726     6.9396 C.ar    
  26 C26           -1.1458    -5.9827     7.5661 C.ar    
  27 C27            0.0501    -5.8744     6.8716 C.ar    
  28 Br28          -1.1842    -6.6803     9.3233 Br      
  29 H29           -1.8902     0.0892    -1.5478 H       
  30 H30           -1.4385    -2.2629    -0.9760 H       
  31 H31            2.2985     0.8915    -1.5567 H       
  32 H32            2.7504    -1.4615    -0.9893 H       
  33 H33           -0.4532    -3.2325     2.4885 H       
  34 H34           -1.0137    -4.2857     1.1635 H       
  35 H35            3.1139    -3.5057     1.1533 H       
  36 H36            2.2140    -2.7285     2.4820 H       
  37 H37            2.7689    -5.7062     2.1058 H       
  38 H38            3.3345    -4.6555     3.4306 H       
  39 H39           -0.7906    -5.4304     3.4392 H       
  40 H40            0.1145    -6.2101     2.1156 H       
  41 H41           -3.1586    -4.7455     5.1613 H       
  42 H42           -3.2621    -5.6473     7.4510 H       
  43 H43            0.9785    -6.1843     7.3280 H       
@<TRIPOS>BOND
   1    1    2 ar
   2    1    3 ar
   3    1   29 1
   4    2    6 ar
   5    2   30 1
   6    3    4 ar
   7    3   16 1
   8    4    5 ar
   9    4   31 1
  10    5    6 ar
  11    5   32 1
  12    6    7 1
  13    7    8 2
  14    7    9 2
  15    7   10 am
  16   10   11 1
  17   10   12 1
  18   11   15 1
  19   11   33 1
  20   11   34 1
  21   12   13 1
  22   12   35 1
  23   12   36 1
  24   13   14 1
  25   13   37 1
  26   13   38 1
  27   14   15 1
  28   14   20 am
  29   15   39 1
  30   15   40 1
  31   16   17 1
  32   16   18 1
  33   16   19 1
  34   20   21 1
  35   20   22 2
  36   21   23 ar
  37   21   27 ar
  38   23   24 ar
  39   24   25 ar
  40   24   41 1
  41   25   26 ar
  42   25   42 1
  43   26   27 ar
  44   26   28 1
  45   27   43 1

#	End of record

