#	Name: ASD00840743
#	Creating user name:	WinNT
#	Creation time:	15. 06. 2019 18:39

#	Modifying user name:	WinNT
#	Modification time:	15. 06. 2019 18:39

#	Program:	/corina/corina34_cracker 3.40 0067  02.08.2006

@<TRIPOS>MOLECULE
ASD00840743
 100  105    0    0    0
SMALL
NO_CHARGES


@<TRIPOS>ATOM
   1 F1             6.0051    -1.9449    -2.0979 F       
   2 N2             0.9754     1.4237    -0.8195 N.ar    
   3 C3             1.2525     0.1334    -0.9057 C.ar    
   4 C4             1.1968    -0.6792     0.2196 C.ar    
   5 C5             0.8467    -0.1210     1.4364 C.ar    
   6 C6             0.5633     1.2372     1.4848 C.ar    
   7 C7             0.6386     1.9845     0.3265 C.ar    
   8 C8             1.5130    -2.1491     0.1165 C.3     
   9 C9             1.2572    -2.8405     1.4387 C.2     
  10 C10            0.6862    -2.7970    -0.9960 C.3     
  11 C11           -0.7757    -2.5120    -0.7664 C.2     
  12 N12           -1.7032    -3.0469    -1.5850 N.am    
  13 O13           -1.1175    -1.8012     0.1549 O.2     
  14 C14           -3.1207    -2.6861    -1.4471 C.3     
  15 C15           -3.9450    -3.9698    -1.3076 C.3     
  16 C16           -3.6440    -4.8954    -2.4887 C.3     
  17 C17           -2.1603    -5.2706    -2.4796 C.3     
  18 C18           -1.3151    -3.9974    -2.6360 C.3     
  19 N19           -4.4575    -6.1133    -2.3756 N.3     
  20 C20           -4.2837    -6.9740    -3.5541 C.3     
  21 C21           -5.0833    -8.2648    -3.3621 C.3     
  22 N22           -6.5008    -7.9344    -3.1594 N.3     
  23 C23           -6.6746    -7.0737    -1.9810 C.3     
  24 C24           -5.8750    -5.7829    -2.1729 C.3     
  25 C25           -7.3143    -9.1523    -3.0464 C.3     
  26 O26            0.1935    -2.9197     2.0163 O.2     
  27 N27            2.4295    -3.3508     1.8518 N.am    
  28 C28            2.9899    -2.3571    -0.1278 C.ar    
  29 C29            3.4667    -3.0848     0.9554 C.ar    
  30 C30            3.8324    -1.9754    -1.1474 C.ar    
  31 C31            5.1745    -2.3177    -1.0998 C.ar    
  32 C32            5.6616    -3.0434    -0.0245 C.ar    
  33 C33            4.8165    -3.4262     0.9982 C.ar    
  34 Cl34           7.3424    -3.4732     0.0372 Cl      
  35 C35            2.3467    -5.8973     2.8923 C.ar    
  36 C36            1.0918    -6.3224     2.4802 C.ar    
  37 C37            3.3819    -6.8056     3.0074 C.ar    
  38 C38            3.1704    -8.1385     2.7121 C.ar    
  39 C39            1.9170    -8.5687     2.2995 C.ar    
  40 C40            0.8770    -7.6598     2.1837 C.ar    
  41 O41            1.7095    -9.8801     2.0096 O.3     
  42 O42            0.0741    -5.4289     2.3676 O.3     
  43 C43            2.8261   -10.7605     2.1515 C.3     
  44 C44           -1.1906    -5.9368     1.9380 C.3     
  45 C45           -2.2038    -4.7923     1.8716 C.3     
  46 C46           -8.7272    -8.7814    -2.5912 C.3     
  47 C47           -9.5745   -10.0499    -2.4735 C.3     
  48 O48            1.5941    -0.4018    -2.1048 O.3     
  49 C49            2.0551    -0.2787    -4.4739 C.3     
  50 C50            1.5248     0.4593    -3.2430 C.3     
  51 S51            2.6224    -4.1968     3.2623 S.o2    
  52 O52            3.9938    -4.0803     3.6157 O.2     
  53 O53            1.5622    -3.7955     4.1191 O.2     
  54 H54            0.7948    -0.7281     2.3281 H       
  55 H55            0.2865     1.7041     2.4185 H       
  56 H56            0.4195     3.0415     0.3588 H       
  57 H57            0.9894    -2.3873    -1.9595 H       
  58 H58            0.8515    -3.8744    -0.9910 H       
  59 H59           -3.2556    -2.0670    -0.5602 H       
  60 H60           -3.4457    -2.1374    -2.3311 H       
  61 H61           -3.6824    -4.4713    -0.3762 H       
  62 H62           -5.0064    -3.7217    -1.3011 H       
  63 H63           -3.8836    -4.3841    -3.4210 H       
  64 H64           -1.9145    -5.7599    -1.5372 H       
  65 H65           -1.9515    -5.9485    -3.3073 H       
  66 H66           -1.4941    -3.5582    -3.6175 H       
  67 H67           -0.2588    -4.2449    -2.5314 H       
  68 H68           -4.6425    -6.4525    -4.4414 H       
  69 H69           -3.2277    -7.2150    -3.6757 H       
  70 H70           -4.9791    -8.8922    -4.2474 H       
  71 H71           -4.7064    -8.7999    -2.4905 H       
  72 H72           -7.7307    -6.8326    -1.8593 H       
  73 H73           -6.3158    -7.5952    -1.0936 H       
  74 H74           -5.9792    -5.1555    -1.2877 H       
  75 H75           -6.2520    -5.2478    -3.0446 H       
  76 H76           -7.3633    -9.6478    -4.0160 H       
  77 H77           -6.8625    -9.8247    -2.3172 H       
  78 H78            3.4479    -1.4102    -1.9836 H       
  79 H79            5.2030    -3.9917     1.8332 H       
  80 H80            4.3579    -6.4728     3.3283 H       
  81 H81            3.9812    -8.8463     2.8021 H       
  82 H82           -0.0992    -7.9927     1.8631 H       
  83 H83            2.5248   -11.7747     1.8896 H       
  84 H84            3.6296   -10.4378     1.4894 H       
  85 H85            3.1758   -10.7405     3.1837 H       
  86 H86           -1.0852    -6.3865     0.9508 H       
  87 H87           -1.5388    -6.6898     2.6450 H       
  88 H88           -3.1685    -5.1797     1.5439 H       
  89 H89           -2.3093    -4.3426     2.8589 H       
  90 H90           -1.8556    -4.0393     1.1647 H       
  91 H91           -8.6782    -8.2859    -1.6215 H       
  92 H92           -9.1791    -8.1090    -3.3204 H       
  93 H93           -9.6235   -10.5454    -3.4431 H       
  94 H94           -9.1226   -10.7223    -1.7443 H       
  95 H95          -10.5811    -9.7857    -2.1492 H       
  96 H96            1.3987    -1.1176    -4.7053 H       
  97 H97            2.0843     0.4046    -5.3226 H       
  98 H98            3.0600    -0.6488    -4.2707 H       
  99 H99            0.4892     0.7533    -3.4138 H       
 100 H100           2.1299     1.3480    -3.0636 H       
@<TRIPOS>BOND
   1    1   31 1
   2    2    3 ar
   3    2    7 ar
   4    3    4 ar
   5    3   48 1
   6    4    5 ar
   7    4    8 1
   8    5    6 ar
   9    5   54 1
  10    6    7 ar
  11    6   55 1
  12    7   56 1
  13    8    9 1
  14    8   10 1
  15    8   28 1
  16    9   26 2
  17    9   27 am
  18   10   11 1
  19   10   57 1
  20   10   58 1
  21   11   12 am
  22   11   13 2
  23   12   14 1
  24   12   18 1
  25   14   15 1
  26   14   59 1
  27   14   60 1
  28   15   16 1
  29   15   61 1
  30   15   62 1
  31   16   17 1
  32   16   19 1
  33   16   63 1
  34   17   18 1
  35   17   64 1
  36   17   65 1
  37   18   66 1
  38   18   67 1
  39   19   20 1
  40   19   24 1
  41   20   21 1
  42   20   68 1
  43   20   69 1
  44   21   22 1
  45   21   70 1
  46   21   71 1
  47   22   23 1
  48   22   25 1
  49   23   24 1
  50   23   72 1
  51   23   73 1
  52   24   74 1
  53   24   75 1
  54   25   46 1
  55   25   76 1
  56   25   77 1
  57   27   51 am
  58   27   29 1
  59   28   29 ar
  60   28   30 ar
  61   29   33 ar
  62   30   31 ar
  63   30   78 1
  64   31   32 ar
  65   32   33 ar
  66   32   34 1
  67   33   79 1
  68   35   36 ar
  69   35   37 ar
  70   35   51 1
  71   36   42 1
  72   36   40 ar
  73   37   38 ar
  74   37   80 1
  75   38   39 ar
  76   38   81 1
  77   39   40 ar
  78   39   41 1
  79   40   82 1
  80   41   43 1
  81   42   44 1
  82   43   83 1
  83   43   84 1
  84   43   85 1
  85   44   45 1
  86   44   86 1
  87   44   87 1
  88   45   88 1
  89   45   89 1
  90   45   90 1
  91   46   47 1
  92   46   91 1
  93   46   92 1
  94   47   93 1
  95   47   94 1
  96   47   95 1
  97   48   50 1
  98   49   50 1
  99   49   96 1
 100   49   97 1
 101   49   98 1
 102   50   99 1
 103   50  100 1
 104   51   52 2
 105   51   53 2

#	End of record

