#	Name: ASD01912483
#	Creating user name:	WinNT
#	Creation time:	15. 06. 2019 19:59

#	Modifying user name:	WinNT
#	Modification time:	15. 06. 2019 19:59

#	Program:	/corina/corina34_cracker 3.40 0067  02.08.2006

@<TRIPOS>MOLECULE
ASD01912483
  56   59    0    0    0
SMALL
NO_CHARGES


@<TRIPOS>ATOM
   1 C1            -0.0166     1.3763     0.0096 C.ar    
   2 C2             0.0021    -0.0041     0.0020 C.ar    
   3 C3             1.2189    -0.6821    -0.0132 C.ar    
   4 C4             2.4119     0.0376    -0.0207 C.ar    
   5 C5             2.3822     1.4184    -0.0130 C.ar    
   6 C6             1.1697     2.0867     0.0021 C.ar    
   7 C7             1.2444    -2.1661    -0.0209 C.2     
   8 N8             0.1936    -2.9586    -0.0152 N.2     
   9 C9             2.3973    -2.9749    -0.0419 C.2     
  10 C10            1.9978    -4.2653    -0.0424 C.2     
  11 N11            0.6477    -4.2837    -0.0261 N.pl3   
  12 C12            2.9002    -5.4722    -0.0616 C.3     
  13 C13           -0.1958    -5.4815    -0.0211 C.3     
  14 C14           -0.4678    -5.8985     1.4013 C.2     
  15 N15           -1.2277    -6.9830     1.6520 N.am    
  16 O16           -0.0028    -5.2582     2.3204 O.2     
  17 C17           -1.5055    -7.4073     3.0326 C.3     
  18 C18           -1.8062    -7.7700     0.5524 C.3     
  19 C19           -3.3068    -7.9398     0.8123 C.3     
  20 N20           -3.5073    -8.5052     2.1533 N.3     
  21 C21           -3.0185    -7.5922     3.1899 C.3     
  22 C22           -4.8396    -8.8245     2.3636 C.ar    
  23 C23           -5.2515    -9.3758     3.5740 C.ar    
  24 N24           -5.7456    -8.6035     1.4132 N.ar    
  25 C25           -7.0135    -8.9040     1.6062 C.ar    
  26 N26           -7.4399    -9.4315     2.7360 N.ar    
  27 C27           -6.5978    -9.6778     3.7356 C.ar    
  28 C28            3.3268    -5.8128     1.3677 C.3     
  29 Cl29           3.8673     2.3174    -0.0223 Cl      
  30 O30           -7.0462   -10.2206     4.8939 O.3     
  31 C31           -8.4437   -10.5067     4.9781 C.3     
  32 H32           -0.9598     1.9024     0.0169 H       
  33 H33           -0.9253    -0.5575     0.0082 H       
  34 H34            3.3580    -0.4833    -0.0322 H       
  35 H35            1.1504     3.1665     0.0081 H       
  36 H36            3.4192    -2.6255    -0.0551 H       
  37 H37            2.3656    -6.3186    -0.4927 H       
  38 H38            3.7834    -5.2559    -0.6627 H       
  39 H39           -1.1388    -5.2639    -0.5226 H       
  40 H40            0.3164    -6.2887    -0.5448 H       
  41 H41           -0.9983    -8.3508     3.2347 H       
  42 H42           -1.1556    -6.6441     3.7276 H       
  43 H43           -1.6551    -7.2463    -0.3916 H       
  44 H44           -1.3286    -8.7489     0.5119 H       
  45 H45           -3.7990    -6.9693     0.7495 H       
  46 H46           -3.7313    -8.6122     0.0669 H       
  47 H47           -3.2291    -8.0123     4.1734 H       
  48 H48           -3.5183    -6.6286     3.0910 H       
  49 H49           -4.5426    -9.5641     4.3667 H       
  50 H50           -7.7241    -8.7123     0.8158 H       
  51 H51            3.9795    -6.6857     1.3538 H       
  52 H52            3.8613    -4.9663     1.7988 H       
  53 H53            2.4436    -6.0290     1.9687 H       
  54 H54           -9.0117    -9.5856     4.8471 H       
  55 H55           -8.7171   -11.2162     4.1971 H       
  56 H56           -8.6685   -10.9364     5.9542 H       
@<TRIPOS>BOND
   1    1    2 ar
   2    1    6 ar
   3    1   32 1
   4    2    3 ar
   5    2   33 1
   6    3    4 ar
   7    3    7 1
   8    4    5 ar
   9    4   34 1
  10    5    6 ar
  11    5   29 1
  12    6   35 1
  13    7    8 2
  14    7    9 1
  15    8   11 1
  16    9   10 2
  17    9   36 1
  18   10   11 1
  19   10   12 1
  20   11   13 1
  21   12   28 1
  22   12   37 1
  23   12   38 1
  24   13   14 1
  25   13   39 1
  26   13   40 1
  27   14   15 am
  28   14   16 2
  29   15   17 1
  30   15   18 1
  31   17   21 1
  32   17   41 1
  33   17   42 1
  34   18   19 1
  35   18   43 1
  36   18   44 1
  37   19   20 1
  38   19   45 1
  39   19   46 1
  40   20   21 1
  41   20   22 1
  42   21   47 1
  43   21   48 1
  44   22   23 ar
  45   22   24 ar
  46   23   27 ar
  47   23   49 1
  48   24   25 ar
  49   25   26 ar
  50   25   50 1
  51   26   27 ar
  52   27   30 1
  53   28   51 1
  54   28   52 1
  55   28   53 1
  56   30   31 1
  57   31   54 1
  58   31   55 1
  59   31   56 1

#	End of record

