#	Name: ASD08150692
#	Creating user name:	WinNT
#	Creation time:	15. 06. 2019 21:16

#	Modifying user name:	WinNT
#	Modification time:	15. 06. 2019 21:16

#	Program:	/corina/corina34_cracker 3.40 0067  02.08.2006

@<TRIPOS>MOLECULE
ASD08150692
  55   56    0    0    0
SMALL
NO_CHARGES


@<TRIPOS>ATOM
   1 C1            -0.3956     0.7337    -1.1019 C.ar    
   2 C2             0.0097     0.0060     0.0075 C.ar    
   3 C3            -0.8063    -0.0502     1.1351 C.ar    
   4 C4            -2.0183     0.6209     1.1430 C.ar    
   5 C5            -2.4158     1.3437     0.0335 C.ar    
   6 C6            -1.6035     1.4050    -1.0838 C.ar    
   7 N7             1.2362    -0.6710    -0.0064 N.am    
   8 C8             1.2988    -1.9600     0.3819 C.2     
   9 N9             2.4575    -2.6403     0.2758 N.am    
  10 S10           -0.0934    -2.7334     1.0100 S.2     
  11 C11            2.5201    -3.9294     0.6641 C.2     
  12 C12            3.7905    -4.6752     0.5477 C.ar    
  13 O13            1.5318    -4.4784     1.1099 O.2     
  14 C14            3.8588    -6.0107     0.9490 C.ar    
  15 C15            5.0478    -6.7012     0.8372 C.ar    
  16 C16            6.1710    -6.0732     0.3286 C.ar    
  17 C17            6.1102    -4.7499    -0.0709 C.ar    
  18 C18            4.9262    -4.0493     0.0305 C.ar    
  19 C19            5.1236    -8.1426     1.2703 C.3     
  20 C20            7.3387    -4.0741    -0.6231 C.3     
  21 C21            0.4838     0.7973    -2.3240 C.3     
  22 C22           -3.7320     2.0775     0.0469 C.3     
  23 O23           -0.4144    -0.7623     2.2253 O.3     
  24 C24            4.7808    -9.0495     0.0867 C.3     
  25 C25            7.3868    -4.2641    -2.1405 C.3     
  26 C26           -4.8329     1.1601    -0.4891 C.3     
  27 F27           -4.9255     0.0216     0.3187 F       
  28 F28           -6.0547     1.8413    -0.4767 F       
  29 F29           -4.5250     0.7784    -1.7993 F       
  30 C30            0.2163    -0.4218    -3.2088 C.3     
  31 F31           -1.1268    -0.4280    -3.6006 F       
  32 F32            1.0327    -0.3628    -4.3434 F       
  33 F33            0.4983    -1.5895    -2.4917 F       
  34 H34           -2.6529     0.5790     2.0159 H       
  35 H35           -1.9136     1.9792    -1.9444 H       
  36 H36            2.0403    -0.2119    -0.2955 H       
  37 H37            3.2463    -2.2021    -0.0801 H       
  38 H38            2.9829    -6.5019     1.3464 H       
  39 H39            7.0994    -6.6183     0.2436 H       
  40 H40            4.8800    -3.0164    -0.2818 H       
  41 H41            6.1324    -8.3649     1.6181 H       
  42 H42            4.4139    -8.3168     2.0790 H       
  43 H43            7.3032    -3.0097    -0.3912 H       
  44 H44            8.2287    -4.5144    -0.1735 H       
  45 H45            0.2641     1.7071    -2.8828 H       
  46 H46            1.5302     0.8022    -2.0188 H       
  47 H47           -3.9719     2.3749     1.0677 H       
  48 H48           -3.6598     2.9645    -0.5825 H       
  49 H49            0.1689    -0.2760     2.8239 H       
  50 H50            4.8356   -10.0921     0.4000 H       
  51 H51            3.7719    -8.8272    -0.2611 H       
  52 H52            5.4905    -8.8753    -0.7220 H       
  53 H53            6.4968    -3.8238    -2.5902 H       
  54 H54            8.2754    -3.7753    -2.5399 H       
  55 H55            7.4224    -5.3285    -2.3725 H       
@<TRIPOS>BOND
   1    1    2 ar
   2    1   21 1
   3    1    6 ar
   4    2    3 ar
   5    2    7 1
   6    3    4 ar
   7    3   23 1
   8    4    5 ar
   9    4   34 1
  10    5    6 ar
  11    5   22 1
  12    6   35 1
  13    7    8 am
  14    7   36 1
  15    8    9 am
  16    8   10 2
  17    9   11 am
  18    9   37 1
  19   11   12 1
  20   11   13 2
  21   12   14 ar
  22   12   18 ar
  23   14   15 ar
  24   14   38 1
  25   15   16 ar
  26   15   19 1
  27   16   17 ar
  28   16   39 1
  29   17   18 ar
  30   17   20 1
  31   18   40 1
  32   19   24 1
  33   19   41 1
  34   19   42 1
  35   20   25 1
  36   20   43 1
  37   20   44 1
  38   21   30 1
  39   21   45 1
  40   21   46 1
  41   22   26 1
  42   22   47 1
  43   22   48 1
  44   23   49 1
  45   24   50 1
  46   24   51 1
  47   24   52 1
  48   25   53 1
  49   25   54 1
  50   25   55 1
  51   26   27 1
  52   26   28 1
  53   26   29 1
  54   30   31 1
  55   30   32 1
  56   30   33 1

#	End of record

