#	Name: ASD01231407
#	Creating user name:	WinNT
#	Creation time:	15. 06. 2019 19:15

#	Modifying user name:	WinNT
#	Modification time:	15. 06. 2019 19:15

#	Program:	/corina/corina34_cracker 3.40 0067  02.08.2006

@<TRIPOS>MOLECULE
ASD01231407
  53   55    0    0    0
SMALL
NO_CHARGES


@<TRIPOS>ATOM
   1 C1            -0.0187     1.5258     0.0104 C.3     
   2 C2             0.0021    -0.0041     0.0020 C.3     
   3 C3             0.7421    -0.5109     1.2415 C.3     
   4 S4            -1.6997    -0.6320     0.0149 S.o2    
   5 O5            -1.7138    -2.0386    -0.1864 O.2     
   6 O6            -2.4435    -0.0351     1.0684 O.2     
   7 N7            -2.3782    -0.0153    -1.3642 N.am    
   8 C8            -2.7399    -1.5694    -3.2587 C.3     
   9 C9            -1.8762    -0.4306    -2.6764 C.3     
  10 C10           -2.0646     0.6938    -3.7166 C.3     
  11 C11           -2.3842    -0.0167    -5.0147 C.ar    
  12 C12           -2.3379     0.4401    -6.3187 C.ar    
  13 C13           -2.6816    -0.4076    -7.3686 C.ar    
  14 C14           -3.0722    -1.7182    -7.0981 C.ar    
  15 C15           -3.1154    -2.1651    -5.7950 C.ar    
  16 C16           -2.7727    -1.3186    -4.7515 C.ar    
  17 O17           -2.9476    -0.6201   -10.0432 O.3     
  18 B18           -2.6299     0.1102    -8.8499 Du      
  19 O19           -2.2552     1.4177    -9.3066 O.3     
  20 C20           -3.1786     1.7094   -10.3766 C.3     
  21 C21           -3.6480     0.3277   -10.8761 C.3     
  22 C22           -3.2642     0.1330   -12.3443 C.3     
  23 C23           -5.1602     0.1810   -10.6951 C.3     
  24 C24           -4.3663     2.5177    -9.8504 C.3     
  25 C25           -2.4703     2.4697   -11.4996 C.3     
  26 H26            1.0039     1.9031     0.0027 H       
  27 H27           -0.5459     1.8868    -0.8726 H       
  28 H28           -0.5289     1.8773     0.9072 H       
  29 H29            0.5123    -0.3556    -0.8948 H       
  30 H30            0.2319    -0.1594     2.1383 H       
  31 H31            0.7568    -1.6008     1.2356 H       
  32 H32            1.7647    -0.1336     1.2338 H       
  33 H33           -3.1078     0.6209    -1.3031 H       
  34 H34           -2.2831    -2.5362    -3.0476 H       
  35 H35           -3.7479    -1.5283    -2.8461 H       
  36 H36           -0.8301    -0.7303    -2.6151 H       
  37 H37           -2.8914     1.3424    -3.4270 H       
  38 H38           -1.1466     1.2726    -3.8184 H       
  39 H39           -2.0350     1.4563    -6.5234 H       
  40 H40           -3.3405    -2.3813    -7.9072 H       
  41 H41           -3.4183    -3.1803    -5.5854 H       
  42 H42           -3.5507    -0.8686   -12.6649 H       
  43 H43           -3.7813     0.8721   -12.9561 H       
  44 H44           -2.1872     0.2566   -12.4578 H       
  45 H45           -5.4177     0.3384    -9.6477 H       
  46 H46           -5.6732     0.9201   -11.3104 H       
  47 H47           -5.4669    -0.8201   -10.9982 H       
  48 H48           -4.0105     3.4665    -9.4487 H       
  49 H49           -5.0660     2.7073   -10.6644 H       
  50 H50           -4.8684     1.9553    -9.0633 H       
  51 H51           -1.6379     1.8735   -11.8733 H       
  52 H52           -3.1740     2.6594   -12.3101 H       
  53 H53           -2.0944     3.4180   -11.1155 H       
@<TRIPOS>BOND
   1    1    2 1
   2    1   26 1
   3    1   27 1
   4    1   28 1
   5    2    3 1
   6    2    4 1
   7    2   29 1
   8    3   30 1
   9    3   31 1
  10    3   32 1
  11    4    5 2
  12    4    6 2
  13    4    7 am
  14    7    9 1
  15    7   33 1
  16    8    9 1
  17    8   16 1
  18    8   34 1
  19    8   35 1
  20    9   10 1
  21    9   36 1
  22   10   11 1
  23   10   37 1
  24   10   38 1
  25   11   12 ar
  26   11   16 ar
  27   12   13 ar
  28   12   39 1
  29   13   14 ar
  30   13   18 1
  31   14   15 ar
  32   14   40 1
  33   15   16 ar
  34   15   41 1
  35   17   18 1
  36   17   21 1
  37   18   19 1
  38   19   20 1
  39   20   21 1
  40   20   24 1
  41   20   25 1
  42   21   22 1
  43   21   23 1
  44   22   42 1
  45   22   43 1
  46   22   44 1
  47   23   45 1
  48   23   46 1
  49   23   47 1
  50   24   48 1
  51   24   49 1
  52   24   50 1
  53   25   51 1
  54   25   52 1
  55   25   53 1

#	End of record

