#	Name: ASD01912278
#	Creating user name:	WinNT
#	Creation time:	15. 06. 2019 19:59

#	Modifying user name:	WinNT
#	Modification time:	15. 06. 2019 19:59

#	Program:	/corina/corina34_cracker 3.40 0067  02.08.2006

@<TRIPOS>MOLECULE
ASD01912278
  51   52    0    0    0
SMALL
NO_CHARGES


@<TRIPOS>ATOM
   1 N1            -0.0417     1.5015    -0.3382 N.am    
   2 C2             0.1699     0.0998     0.0453 C.3     
   3 C3             0.4293    -0.7250    -1.2218 C.3     
   4 C4             1.4913    -0.0237    -2.0398 C.2     
   5 C5             1.2864     1.4349    -2.3856 C.3     
   6 C6             1.0056     2.2056    -1.0893 C.3     
   7 C7            -1.1862     2.1328    -0.0095 C.2     
   8 O8            -2.2056     1.4929     0.1626 O.2     
   9 N9            -1.2007     3.4734     0.1284 N.am    
  10 C10            2.5807    -0.6746    -2.4456 C.2     
  11 C11            3.5750     0.0062    -3.2191 C.1     
  12 C12            4.3902     0.5643    -3.8533 C.1     
  13 C13            5.3846     1.2451    -4.6269 C.ar    
  14 C14            6.5257     0.5575    -5.0501 C.ar    
  15 C15            7.4761     1.2296    -5.7963 C.ar    
  16 C16            7.2588     2.5678    -6.0975 C.ar    
  17 C17            6.1076     3.1877    -5.6472 C.ar    
  18 N18            5.2133     2.5257    -4.9423 N.ar    
  19 C19            5.8698     4.6398    -5.9730 C.3     
  20 C20            0.0520     4.2009     0.3469 C.3     
  21 C21           -2.4691     4.2032     0.0597 C.3     
  22 C22           -3.0732     4.3088     1.4615 C.3     
  23 C23           -4.3979     5.0709     1.3898 C.3     
  24 C24           -5.0020     5.1766     2.7915 C.3     
  25 H25            1.0308     0.0288     0.7101 H       
  26 H26           -0.7179    -0.2784     0.5521 H       
  27 H27            0.7762    -1.7211    -0.9467 H       
  28 H28           -0.4895    -0.8035    -1.8030 H       
  29 H29            2.1852     1.8294    -2.8597 H       
  30 H30            0.4389     1.5359    -3.0635 H       
  31 H31            0.6680     3.2138    -1.3295 H       
  32 H32            1.9145     2.2555    -0.4897 H       
  33 H33            2.7138    -1.7157    -2.1911 H       
  34 H34            6.6632    -0.4836    -4.7976 H       
  35 H35            8.3682     0.7251    -6.1371 H       
  36 H36            7.9830     3.1198    -6.6783 H       
  37 H37            5.3275     4.7166    -6.9154 H       
  38 H38            5.2830     5.0992    -5.1776 H       
  39 H39            6.8270     5.1537    -6.0617 H       
  40 H40            0.5360     4.3871    -0.6118 H       
  41 H41           -0.1603     5.1509     0.8374 H       
  42 H42            0.7124     3.6059     0.9777 H       
  43 H43           -2.2920     5.2033    -0.3359 H       
  44 H44           -3.1597     3.6707    -0.5943 H       
  45 H45           -3.2504     3.3087     1.8571 H       
  46 H46           -2.3827     4.8412     2.1155 H       
  47 H47           -4.2208     6.0710     0.9942 H       
  48 H48           -5.0885     4.5385     0.7357 H       
  49 H49           -5.1792     4.1765     3.1871 H       
  50 H50           -4.3115     5.7090     3.4456 H       
  51 H51           -5.9458     5.7196     2.7404 H       
@<TRIPOS>BOND
   1    1    2 1
   2    1    6 1
   3    1    7 am
   4    2    3 1
   5    2   25 1
   6    2   26 1
   7    3    4 1
   8    3   27 1
   9    3   28 1
  10    4    5 1
  11    4   10 2
  12    5    6 1
  13    5   29 1
  14    5   30 1
  15    6   31 1
  16    6   32 1
  17    7    8 2
  18    7    9 am
  19    9   20 1
  20    9   21 1
  21   10   11 1
  22   10   33 1
  23   11   12 3
  24   12   13 1
  25   13   14 ar
  26   13   18 ar
  27   14   15 ar
  28   14   34 1
  29   15   16 ar
  30   15   35 1
  31   16   17 ar
  32   16   36 1
  33   17   18 ar
  34   17   19 1
  35   19   37 1
  36   19   38 1
  37   19   39 1
  38   20   40 1
  39   20   41 1
  40   20   42 1
  41   21   22 1
  42   21   43 1
  43   21   44 1
  44   22   23 1
  45   22   45 1
  46   22   46 1
  47   23   24 1
  48   23   47 1
  49   23   48 1
  50   24   49 1
  51   24   50 1
  52   24   51 1

#	End of record

