#	Name: ASD05740199
#	Creating user name:	WinNT
#	Creation time:	15. 06. 2019 21:03

#	Modifying user name:	WinNT
#	Modification time:	15. 06. 2019 21:03

#	Program:	/corina/corina34_cracker 3.40 0067  02.08.2006

@<TRIPOS>MOLECULE
ASD05740199
  62   66    0    0    0
SMALL
NO_CHARGES


@<TRIPOS>ATOM
   1 C1             0.9531    -0.8271    -0.0440 C.3     
   2 N2             0.0371    -0.1445     0.8805 N.3     
   3 C3            -1.2685    -0.6286     0.7416 C.ar    
   4 C4            -2.2886    -0.1107     1.5289 C.ar    
   5 C5            -3.5768    -0.5884     1.3918 C.ar    
   6 C6            -3.8523    -1.5871     0.4670 C.ar    
   7 C7            -2.8322    -2.1053    -0.3199 C.ar    
   8 C8            -1.5452    -1.6230    -0.1876 C.ar    
   9 N9            -5.1590    -2.0720     0.3283 N.pl3   
  10 C10           -6.2334    -1.2225     0.5064 C.ar    
  11 N11           -6.0003     0.0714     0.6975 N.ar    
  12 N12           -7.4577    -1.7281     0.4747 N.ar    
  13 C13           -8.5129    -0.9414     0.6420 C.ar    
  14 C14           -8.3033     0.4392     0.8533 C.ar    
  15 C15           -6.9916     0.9266     0.8729 C.ar    
  16 N16           -9.7918    -1.4348     0.6140 N.am    
  17 C17          -10.8502    -0.6228     0.7850 C.2     
  18 C18          -10.6974     0.7620     0.9988 C.2     
  19 C19           -9.4567     1.3145     1.0386 C.2     
  20 C20          -10.0085    -2.8669     0.3943 C.3     
  21 O21          -11.9723    -1.0974     0.7538 O.2     
  22 C22            0.5017    -0.2735     2.2687 C.3     
  23 C23            1.8991     0.3378     2.3951 C.3     
  24 N24            2.8151    -0.3448     1.4706 N.3     
  25 C25            2.3504    -0.2158     0.0824 C.3     
  26 C26          -10.0273    -3.5816     1.7209 C.ar    
  27 C27            4.1856     0.1634     1.6164 C.3     
  28 C28          -11.1746    -3.5684     2.4999 C.ar    
  29 C29           -8.9032    -4.2550     2.1592 C.ar    
  30 C30          -11.1903    -4.2271     3.7207 C.ar    
  31 C31          -10.0635    -4.8952     4.1588 C.ar    
  32 C32           -8.9203    -4.9123     3.3774 C.ar    
  33 O33          -12.2828    -2.9101     2.0677 O.3     
  34 C34          -13.4284    -2.9384     2.9214 C.3     
  35 F35           -7.8191    -5.5665     3.8068 F       
  36 H36            0.9963    -1.8877     0.2039 H       
  37 H37            0.5945    -0.7067    -1.0663 H       
  38 H38           -2.0742     0.6655     2.2486 H       
  39 H39           -4.3701    -0.1857     2.0041 H       
  40 H40           -3.0464    -2.8825    -1.0386 H       
  41 H41           -0.7519    -2.0260    -0.7996 H       
  42 H42           -5.3094    -3.0044     0.1073 H       
  43 H43           -6.7944     1.9765     1.0322 H       
  44 H44          -11.5691     1.3857     1.1317 H       
  45 H45           -9.3272     2.3741     1.2021 H       
  46 H46          -10.9619    -3.0166    -0.1125 H       
  47 H47           -9.2029    -3.2660    -0.2220 H       
  48 H48           -0.1859     0.2505     2.9325 H       
  49 H49            0.5399    -1.3278     2.5429 H       
  50 H50            1.8558     1.3984     2.1471 H       
  51 H51            2.2577     0.2174     3.4173 H       
  52 H52            3.0381    -0.7398    -0.5814 H       
  53 H53            2.3123     0.8385    -0.1918 H       
  54 H54            4.5291    -0.0055     2.6370 H       
  55 H55            4.8426    -0.3587     0.9208 H       
  56 H56            4.2021     1.2315     1.3996 H       
  57 H57           -8.0109    -4.2688     1.5509 H       
  58 H58          -12.0830    -4.2174     4.3284 H       
  59 H59          -10.0754    -5.4081     5.1091 H       
  60 H60          -14.2401    -2.3768     2.4590 H       
  61 H61          -13.7421    -3.9710     3.0744 H       
  62 H62          -13.1768    -2.4890     3.8821 H       
@<TRIPOS>BOND
   1    1    2 1
   2    1   25 1
   3    1   36 1
   4    1   37 1
   5    2    3 1
   6    2   22 1
   7    3    4 ar
   8    3    8 ar
   9    4    5 ar
  10    4   38 1
  11    5    6 ar
  12    5   39 1
  13    6    7 ar
  14    6    9 1
  15    7    8 ar
  16    7   40 1
  17    8   41 1
  18    9   10 1
  19    9   42 1
  20   10   11 ar
  21   10   12 ar
  22   11   15 ar
  23   12   13 ar
  24   13   14 ar
  25   13   16 1
  26   14   15 ar
  27   14   19 1
  28   15   43 1
  29   16   17 am
  30   16   20 1
  31   17   18 1
  32   17   21 2
  33   18   19 2
  34   18   44 1
  35   19   45 1
  36   20   26 1
  37   20   46 1
  38   20   47 1
  39   22   23 1
  40   22   48 1
  41   22   49 1
  42   23   24 1
  43   23   50 1
  44   23   51 1
  45   24   25 1
  46   24   27 1
  47   25   52 1
  48   25   53 1
  49   26   29 ar
  50   26   28 ar
  51   27   54 1
  52   27   55 1
  53   27   56 1
  54   28   30 ar
  55   28   33 1
  56   29   32 ar
  57   29   57 1
  58   30   31 ar
  59   30   58 1
  60   31   32 ar
  61   31   59 1
  62   32   35 1
  63   33   34 1
  64   34   60 1
  65   34   61 1
  66   34   62 1

#	End of record

