#	Name: ASD03540584
#	Creating user name:	WinNT
#	Creation time:	15. 06. 2019 20:43

#	Modifying user name:	WinNT
#	Modification time:	15. 06. 2019 20:43

#	Program:	/corina/corina34_cracker 3.40 0067  02.08.2006

@<TRIPOS>MOLECULE
ASD03540584
  60   64    0    0    0
SMALL
NO_CHARGES


@<TRIPOS>ATOM
   1 C1            -0.0180     1.4730     0.0101 C.2     
   2 C2             0.0021    -0.0041     0.0020 C.ar    
   3 C3             1.2188    -0.6888    -0.0133 C.ar    
   4 C4             1.2303    -2.0682    -0.0203 C.ar    
   5 C5             0.0396    -2.7731    -0.0127 C.ar    
   6 C6            -1.1697    -2.1009     0.0020 C.ar    
   7 C7            -1.1956    -0.7217     0.0154 C.ar    
   8 O8             1.0256     2.0946     0.0035 O.2     
   9 O9            -1.1936     2.1307     0.0193 O.3     
  10 C10            0.0601    -4.2800    -0.0210 C.3     
  11 N11           -1.1414    -5.4850     3.2937 N.pl3   
  12 C12           -1.1133    -5.0225     2.0097 C.2     
  13 N13            0.0799    -4.7757     1.3575 N.am    
  14 C14            1.2628    -4.9851     1.9718 C.2     
  15 C15            1.2652    -5.4847     3.3596 C.ar    
  16 C16            2.4553    -5.7181     4.0389 C.ar    
  17 C17            2.4162    -6.1907     5.3492 C.ar    
  18 C18            1.1851    -6.4271     5.9721 C.ar    
  19 C19            0.0069    -6.1958     5.2988 C.ar    
  20 C20            0.0322    -5.7247     3.9923 C.ar    
  21 N21           -3.1527    -5.2470     2.5766 N.2     
  22 N22           -2.3639    -4.8963     1.6244 N.2     
  23 C23           -2.4614    -5.6207     3.6175 C.2     
  24 O24            2.3089    -4.7660     1.3913 O.2     
  25 C25            3.6743    -6.4428     6.0809 C.2     
  26 N26            3.6368    -6.8999     7.3482 N.am    
  27 O27            4.7436    -6.2380     5.5400 O.2     
  28 C28            4.8846    -7.1500     8.0740 C.3     
  29 C29            4.5681    -7.6521     9.4592 C.ar    
  30 C30            4.4336    -9.0092     9.6873 C.ar    
  31 C31            4.1435    -9.4720    10.9562 C.ar    
  32 C32            3.9871    -8.5740    12.0019 C.ar    
  33 C33            4.1226    -7.2128    11.7704 C.ar    
  34 C34            4.4183    -6.7554    10.5009 C.ar    
  35 O35            3.7013    -9.0268    13.2510 O.3     
  36 C36            3.5540    -8.0452    14.2790 C.3     
  37 C37           -1.1373     3.5816     0.0269 C.3     
  38 H38            2.1488    -0.1398    -0.0199 H       
  39 H39            2.1707    -2.5992    -0.0321 H       
  40 H40           -2.0953    -2.6572     0.0071 H       
  41 H41           -2.1401    -0.1983     0.0318 H       
  42 H42           -0.8298    -4.6526    -0.5283 H       
  43 H43            0.9499    -4.6284    -0.5452 H       
  44 H44            3.4031    -5.5348     3.5547 H       
  45 H45            1.1595    -6.7937     6.9876 H       
  46 H46           -0.9385    -6.3813     5.7869 H       
  47 H47           -2.8583    -5.9659     4.5608 H       
  48 H48            2.7836    -7.0633     7.7798 H       
  49 H49            5.4710    -7.8986     7.5413 H       
  50 H50            5.4555    -6.2241     8.1448 H       
  51 H51            4.5551    -9.7079     8.8728 H       
  52 H52            4.0381   -10.5321    11.1338 H       
  53 H53            4.0013    -6.5117    12.5829 H       
  54 H54            4.5286    -5.6962    10.3211 H       
  55 H55            4.4809    -7.4801    14.3773 H       
  56 H56            2.7408    -7.3671    14.0201 H       
  57 H57            3.3279    -8.5396    15.2238 H       
  58 H58           -0.6055     3.9199     0.9162 H       
  59 H59           -0.6140     3.9295    -0.8637 H       
  60 H60           -2.1501     3.9844     0.0339 H       
@<TRIPOS>BOND
   1    1    2 1
   2    1    8 2
   3    1    9 1
   4    2    3 ar
   5    2    7 ar
   6    3    4 ar
   7    3   38 1
   8    4    5 ar
   9    4   39 1
  10    5    6 ar
  11    5   10 1
  12    6    7 ar
  13    6   40 1
  14    7   41 1
  15    9   37 1
  16   10   13 1
  17   10   42 1
  18   10   43 1
  19   11   12 1
  20   11   20 1
  21   11   23 1
  22   12   13 1
  23   12   22 2
  24   13   14 am
  25   14   15 1
  26   14   24 2
  27   15   16 ar
  28   15   20 ar
  29   16   17 ar
  30   16   44 1
  31   17   18 ar
  32   17   25 1
  33   18   19 ar
  34   18   45 1
  35   19   20 ar
  36   19   46 1
  37   21   22 1
  38   21   23 2
  39   23   47 1
  40   25   26 am
  41   25   27 2
  42   26   28 1
  43   26   48 1
  44   28   29 1
  45   28   49 1
  46   28   50 1
  47   29   30 ar
  48   29   34 ar
  49   30   31 ar
  50   30   51 1
  51   31   32 ar
  52   31   52 1
  53   32   33 ar
  54   32   35 1
  55   33   34 ar
  56   33   53 1
  57   34   54 1
  58   35   36 1
  59   36   55 1
  60   36   56 1
  61   36   57 1
  62   37   58 1
  63   37   59 1
  64   37   60 1

#	End of record

