#	Name: ASD03091971
#	Creating user name:	WinNT
#	Creation time:	15. 06. 2019 20:31

#	Modifying user name:	WinNT
#	Modification time:	15. 06. 2019 20:31

#	Program:	/corina/corina34_cracker 3.40 0067  02.08.2006

@<TRIPOS>MOLECULE
ASD03091971
  55   58    0    0    0
SMALL
NO_CHARGES


@<TRIPOS>ATOM
   1 C1             0.0126     1.6799    -0.3082 C.ar    
   2 C2            -1.2259     2.2770    -0.1525 C.ar    
   3 C3            -2.3658     1.4960    -0.1249 C.ar    
   4 C4            -2.2809     0.1189    -0.2521 C.ar    
   5 C5            -1.0534    -0.4927    -0.4081 C.ar    
   6 C6             0.1001     0.2846    -0.4368 C.ar    
   7 O7             1.1550     2.4087    -0.3350 O.3     
   8 C8             2.3266     1.8080     0.2169 C.3     
   9 N9             2.5141     0.4535    -0.3039 N.am    
  10 C10            1.4400    -0.3169    -0.5952 C.2     
  11 C11           -3.5353    -0.7155    -0.2193 C.3     
  12 C12           -3.1849    -2.1594    -0.4715 C.ar    
  13 C13           -3.1357    -2.6500    -1.7637 C.ar    
  14 C14           -2.9032    -3.0072     0.5904 C.ar    
  15 C15           -2.5853    -4.3261     0.3168 C.ar    
  16 C16           -2.5593    -4.7554    -1.0102 C.ar    
  17 N17           -2.8303    -3.9097    -1.9980 N.ar    
  18 O18            1.5734    -1.4644    -0.9745 O.2     
  19 C19            3.8668    -0.0697    -0.5104 C.3     
  20 C20            4.0645    -1.3271     0.3403 C.3     
  21 O21            5.3638    -1.8683     0.0934 O.3     
  22 C22            4.0574    -0.4271    -1.9877 C.3     
  23 C23            5.4463    -1.0448    -2.1771 C.3     
  24 C24            5.5829    -2.2644    -1.2620 C.3     
  25 O25            3.9473     0.7547    -2.7835 O.3     
  26 C26           -3.7136     2.1482     0.0454 C.3     
  27 C27           -4.0951     2.1512     1.5271 C.3     
  28 C28           -2.2218    -6.1602    -1.3198 C.2     
  29 C29           -2.1956    -6.5737    -2.5794 C.2     
  30 H30           -1.3015     3.3497    -0.0524 H       
  31 H31           -0.9889    -1.5663    -0.5067 H       
  32 H32            3.1952     2.4142    -0.0405 H       
  33 H33            2.2299     1.7645     1.3017 H       
  34 H34           -4.0086    -0.6219     0.7581 H       
  35 H35           -4.2229    -0.3684    -0.9907 H       
  36 H36           -3.3509    -1.9913    -2.5920 H       
  37 H37           -2.9310    -2.6458     1.6077 H       
  38 H38           -2.3603    -5.0130     1.1192 H       
  39 H39            4.5976     0.6855    -0.2211 H       
  40 H40            3.9722    -1.0702     1.3955 H       
  41 H41            3.3071    -2.0659     0.0783 H       
  42 H42            3.2949    -1.1446    -2.2906 H       
  43 H43            5.5694    -1.3528    -3.2154 H       
  44 H44            6.2097    -0.3100    -1.9212 H       
  45 H45            6.5845    -2.6828    -1.3611 H       
  46 H46            4.8455    -3.0156    -1.5450 H       
  47 H47            4.0578     0.6020    -3.7319 H       
  48 H48           -3.6697     3.1740    -0.3205 H       
  49 H49           -4.4606     1.5920    -0.5210 H       
  50 H50           -3.3482     2.7074     2.0935 H       
  51 H51           -5.0700     2.6229     1.6503 H       
  52 H52           -4.1390     1.1254     1.8930 H       
  53 H53           -1.9965    -6.8502    -0.5201 H       
  54 H54           -1.9490    -7.6005    -2.8057 H       
  55 H55           -2.4209    -5.8836    -3.3791 H       
@<TRIPOS>BOND
   1    1    6 ar
   2    1    7 1
   3    1    2 ar
   4    2    3 ar
   5    2   30 1
   6    3    4 ar
   7    3   26 1
   8    4    5 ar
   9    4   11 1
  10    5    6 ar
  11    5   31 1
  12    6   10 1
  13    7    8 1
  14    8    9 1
  15    8   32 1
  16    8   33 1
  17    9   10 am
  18    9   19 1
  19   10   18 2
  20   11   12 1
  21   11   34 1
  22   11   35 1
  23   12   14 ar
  24   12   13 ar
  25   13   17 ar
  26   13   36 1
  27   14   15 ar
  28   14   37 1
  29   15   16 ar
  30   15   38 1
  31   16   17 ar
  32   16   28 1
  33   19   22 1
  34   19   20 1
  35   19   39 1
  36   20   21 1
  37   20   40 1
  38   20   41 1
  39   21   24 1
  40   22   23 1
  41   22   25 1
  42   22   42 1
  43   23   24 1
  44   23   43 1
  45   23   44 1
  46   24   45 1
  47   24   46 1
  48   25   47 1
  49   26   27 1
  50   26   48 1
  51   26   49 1
  52   27   50 1
  53   27   51 1
  54   27   52 1
  55   28   29 2
  56   28   53 1
  57   29   54 1
  58   29   55 1

#	End of record

