#	Name: ASD01410188
#	Creating user name:	WinNT
#	Creation time:	15. 06. 2019 19:16

#	Modifying user name:	WinNT
#	Modification time:	15. 06. 2019 19:16

#	Program:	/corina/corina34_cracker 3.40 0067  02.08.2006

@<TRIPOS>MOLECULE
ASD01410188
  47   50    0    0    0
SMALL
NO_CHARGES


@<TRIPOS>ATOM
   1 C1             0.0026     1.3726    -0.2902 C.ar    
   2 C2             0.0106    -0.0143    -0.0374 C.ar    
   3 C3            -1.1828    -0.7470    -0.1152 C.ar    
   4 C4            -2.3475    -0.1198    -0.4345 C.ar    
   5 C5            -2.3655     1.2601    -0.6878 C.ar    
   6 C6            -1.1896     2.0040    -0.6105 C.ar    
   7 N7             1.2976     1.8229    -0.1424 N.pl3   
   8 C8             2.1012     0.7585     0.1929 C.2     
   9 C9             1.3478    -0.3681     0.2636 C.2     
  10 C10            1.1304    -2.2561     1.8565 C.3     
  11 C11            1.6361    -3.6585     2.2007 C.3     
  12 C12            1.3502    -4.6047     1.0329 C.3     
  13 C13            2.0658    -4.0979    -0.2210 C.3     
  14 C14            1.5601    -2.6956    -0.5652 C.3     
  15 C15            1.8460    -1.7494     0.6027 C.3     
  16 C16           -3.6346     1.9267    -1.0332 C.2     
  17 O17           -3.6530     3.1216    -1.2530 O.2     
  18 O18           -4.7740     1.2107    -1.1050 O.3     
  19 C19            5.6158    -0.2159     0.4312 C.ar    
  20 C20            6.2432     0.9311     0.8820 C.ar    
  21 C21            5.4890     2.0722     1.1187 C.ar    
  22 C22            4.1248     2.0212     0.8934 C.ar    
  23 C23            3.5573     0.8303     0.4383 C.ar    
  24 N24            4.3152    -0.2392     0.2242 N.ar    
  25 C25            1.7440     3.2076    -0.3147 C.3     
  26 H26           -1.1773    -1.8096     0.0779 H       
  27 H27           -3.2641    -0.6881    -0.4937 H       
  28 H28           -1.2057     3.0661    -0.8056 H       
  29 H29            0.0566    -2.2921     1.6725 H       
  30 H30            1.3340    -1.5820     2.6885 H       
  31 H31            2.7098    -3.6225     2.3848 H       
  32 H32            1.1263    -4.0195     3.0940 H       
  33 H33            1.7105    -5.6037     1.2781 H       
  34 H34            0.2765    -4.6406     0.8488 H       
  35 H35            3.1396    -4.0620    -0.0369 H       
  36 H36            1.8622    -4.7720    -1.0530 H       
  37 H37            2.0699    -2.3346    -1.4584 H       
  38 H38            0.4864    -2.7316    -0.7492 H       
  39 H39            2.9197    -1.7134     0.7867 H       
  40 H40           -5.5809     1.6915    -1.3349 H       
  41 H41            6.2011    -1.1037     0.2420 H       
  42 H42            7.3102     0.9390     1.0487 H       
  43 H43            5.9566     2.9797     1.4713 H       
  44 H44            3.5080     2.8904     1.0676 H       
  45 H45            1.7747     3.7029     0.6557 H       
  46 H46            2.7395     3.2158    -0.7586 H       
  47 H47            1.0498     3.7343    -0.9696 H       
@<TRIPOS>BOND
   1    1    2 ar
   2    1    7 1
   3    1    6 ar
   4    2    3 ar
   5    2    9 1
   6    3    4 ar
   7    3   26 1
   8    4    5 ar
   9    4   27 1
  10    5    6 ar
  11    5   16 1
  12    6   28 1
  13    7    8 1
  14    7   25 1
  15    8    9 2
  16    8   23 1
  17    9   15 1
  18   10   11 1
  19   10   15 1
  20   10   29 1
  21   10   30 1
  22   11   12 1
  23   11   31 1
  24   11   32 1
  25   12   13 1
  26   12   33 1
  27   12   34 1
  28   13   14 1
  29   13   35 1
  30   13   36 1
  31   14   15 1
  32   14   37 1
  33   14   38 1
  34   15   39 1
  35   16   17 2
  36   16   18 1
  37   18   40 1
  38   19   20 ar
  39   19   24 ar
  40   19   41 1
  41   20   21 ar
  42   20   42 1
  43   21   22 ar
  44   21   43 1
  45   22   23 ar
  46   22   44 1
  47   23   24 ar
  48   25   45 1
  49   25   46 1
  50   25   47 1

#	End of record

