#	Name: ASD05250077
#	Creating user name:	WinNT
#	Creation time:	15. 06. 2019 20:58

#	Modifying user name:	WinNT
#	Modification time:	15. 06. 2019 20:58

#	Program:	/corina/corina34_cracker 3.40 0067  02.08.2006

@<TRIPOS>MOLECULE
ASD05250077
  27   28    0    0    0
SMALL
NO_CHARGES


@<TRIPOS>ATOM
   1 C1            -0.0167     1.3784     0.0096 C.ar    
   2 C2             0.0021    -0.0041     0.0020 C.ar    
   3 C3             1.2109    -0.6878    -0.0132 C.ar    
   4 C4             2.4039     0.0139    -0.0203 C.ar    
   5 C5             2.3874     1.4105    -0.0127 C.ar    
   6 C6             1.1659     2.0890     0.0021 C.ar    
   7 O7             1.2223    -2.0468    -0.0206 O.3     
   8 C8             3.6533     2.1656    -0.0197 C.2     
   9 C9             3.6343     3.5078    -0.0123 C.2     
  10 C10            4.9001     4.2628    -0.0193 C.ar    
  11 C11            4.8842     5.6600    -0.0117 C.ar    
  12 C12            6.0727     6.3598    -0.0184 C.ar    
  13 C13            7.2788     5.6816    -0.0331 C.ar    
  14 C14            7.3023     4.2980    -0.0408 C.ar    
  15 C15            6.1219     3.5848    -0.0279 C.ar    
  16 H16           -0.9602     1.9038     0.0169 H       
  17 H17           -0.9271    -0.5546     0.0083 H       
  18 H18            3.3445    -0.5168    -0.0314 H       
  19 H19            1.1476     3.1689     0.0078 H       
  20 H20            1.2172    -2.4353    -0.9061 H       
  21 H21            4.5961     1.6389    -0.0308 H       
  22 H22            2.6914     4.0344    -0.0012 H       
  23 H23            3.9436     6.1907    -0.0009 H       
  24 H24            6.0620     7.4398    -0.0125 H       
  25 H25            8.2063     6.2349    -0.0390 H       
  26 H26            8.2474     3.7754    -0.0526 H       
  27 H27            6.1418     2.5050    -0.0339 H       
@<TRIPOS>BOND
   1    1    2 ar
   2    1    6 ar
   3    1   16 1
   4    2    3 ar
   5    2   17 1
   6    3    4 ar
   7    3    7 1
   8    4    5 ar
   9    4   18 1
  10    5    6 ar
  11    5    8 1
  12    6   19 1
  13    7   20 1
  14    8    9 2
  15    8   21 1
  16    9   10 1
  17    9   22 1
  18   10   11 ar
  19   10   15 ar
  20   11   12 ar
  21   11   23 1
  22   12   13 ar
  23   12   24 1
  24   13   14 ar
  25   13   25 1
  26   14   15 ar
  27   14   26 1
  28   15   27 1

#	End of record

