#	Name: ASD03930246
#	Creating user name:	WinNT
#	Creation time:	15. 06. 2019 20:47

#	Modifying user name:	WinNT
#	Modification time:	15. 06. 2019 20:47

#	Program:	/corina/corina34_cracker 3.40 0067  02.08.2006

@<TRIPOS>MOLECULE
ASD03930246
  43   47    0    0    0
SMALL
NO_CHARGES


@<TRIPOS>ATOM
   1 N1            -0.0154     1.2846     0.0091 N.pl3   
   2 N2             0.0021    -0.0041     0.0020 N.2     
   3 C3             1.1663     2.1504     0.0025 C.3     
   4 C4             1.5640     2.4596    -1.4422 C.3     
   5 N5             1.9848     1.2243    -2.1079 N.am    
   6 N6             3.0674     0.4963    -1.6075 N.2     
   7 C7             1.3208     0.7871    -3.2034 C.2     
   8 C8             1.7915    -0.4622    -3.8281 C.ar    
   9 C9             2.8998    -1.1197    -3.2489 C.ar    
  10 N10            3.4850    -0.5918    -2.1447 N.2     
  11 C11            1.1679    -0.9874    -4.9568 C.ar    
  12 C12            1.6375    -2.1614    -5.5149 C.ar    
  13 C13            2.7430    -2.8182    -4.9404 C.ar    
  14 C14            3.3712    -2.3053    -3.8183 C.ar    
  15 O15            0.3718     1.4013    -3.6547 O.2     
  16 O16            1.0365    -2.6851    -6.6150 O.3     
  17 C17            1.0153    -4.1082    -6.7312 C.3     
  18 N18            2.3731    -4.6294    -6.4735 N.am    
  19 C19            3.2179    -4.0782    -5.5704 C.2     
  20 O20            4.2906    -4.5787    -5.2941 O.2     
  21 C21            0.7227    -4.5114    -8.1958 C.3     
  22 C22            1.3824    -5.9156    -8.2681 C.3     
  23 C23            2.6243    -5.7648    -7.3609 C.3     
  24 C24            2.7197     3.4622    -1.4497 C.3     
  25 C25           -1.2391    -0.4241     0.0116 C.2     
  26 N26           -2.0151     0.6599     0.0249 N.2     
  27 N27           -1.2379     1.6895     0.0174 N.2     
  28 H28            0.9384     3.0803     0.5235 H       
  29 H29            1.9903     1.6445     0.5057 H       
  30 H30            0.7108     2.8847    -1.9709 H       
  31 H31            0.3208    -0.4798    -5.3940 H       
  32 H32            4.2181    -2.8177    -3.3863 H       
  33 H33            0.2914    -4.5447    -6.0431 H       
  34 H34           -0.3503    -4.5737    -8.3773 H       
  35 H35            1.1962    -3.8206    -8.8935 H       
  36 H36            0.7093    -6.6781    -7.8762 H       
  37 H37            1.6784    -6.1500    -9.2906 H       
  38 H38            3.5075    -5.5718    -7.9698 H       
  39 H39            2.7666    -6.6713    -6.7727 H       
  40 H40            3.5729     3.0371    -0.9211 H       
  41 H41            3.0029     3.6825    -2.4790 H       
  42 H42            2.4065     4.3813    -0.9545 H       
  43 H43           -1.5703    -1.4521     0.0093 H       
@<TRIPOS>BOND
   1    1    2 1
   2    1    3 1
   3    1   27 1
   4    2   25 2
   5    3    4 1
   6    3   28 1
   7    3   29 1
   8    4    5 1
   9    4   24 1
  10    4   30 1
  11    5    6 1
  12    5    7 am
  13    6   10 2
  14    7    8 1
  15    7   15 2
  16    8    9 ar
  17    8   11 ar
  18    9   10 1
  19    9   14 ar
  20   11   12 ar
  21   11   31 1
  22   12   13 ar
  23   12   16 1
  24   13   14 ar
  25   13   19 1
  26   14   32 1
  27   16   17 1
  28   17   18 1
  29   17   21 1
  30   17   33 1
  31   18   19 am
  32   18   23 1
  33   19   20 2
  34   21   22 1
  35   21   34 1
  36   21   35 1
  37   22   23 1
  38   22   36 1
  39   22   37 1
  40   23   38 1
  41   23   39 1
  42   24   40 1
  43   24   41 1
  44   24   42 1
  45   25   26 1
  46   25   43 1
  47   26   27 2

#	End of record

