#	Name: ASD01940323
#	Creating user name:	WinNT
#	Creation time:	15. 06. 2019 20:12

#	Modifying user name:	WinNT
#	Modification time:	15. 06. 2019 20:12

#	Program:	/corina/corina34_cracker 3.40 0067  02.08.2006

@<TRIPOS>MOLECULE
ASD01940323
  18   18    0    0    0
SMALL
NO_CHARGES


@<TRIPOS>ATOM
   1 C1            -0.0167     1.3818     0.0096 C.ar    
   2 C2             0.0021    -0.0041     0.0020 C.ar    
   3 C3             1.2126    -0.6788    -0.0132 C.ar    
   4 C4             2.4003     0.0324    -0.0207 C.ar    
   5 C5             2.3794     1.4145    -0.0126 C.ar    
   6 C6             1.1731     2.0892     0.0021 C.ar    
   7 F7             1.2336    -2.0296    -0.0202 F       
   8 F8            -1.1581    -0.6963     0.0098 F       
   9 F9            -1.1955     2.0418     0.0188 F       
  10 C10            3.6735     2.1866    -0.0198 C.3     
  11 C11            4.0985     2.4562    -1.4647 C.3     
  12 H12            3.3438    -0.4930    -0.0325 H       
  13 H13            1.1589     3.1691     0.0080 H       
  14 H14            3.5342     3.1341     0.5007 H       
  15 H15            4.4461     1.6056     0.4838 H       
  16 H16            5.0345     3.0147    -1.4699 H       
  17 H17            4.2379     1.5087    -1.9852 H       
  18 H18            3.3259     3.0372    -1.9683 H       
@<TRIPOS>BOND
   1    1    2 ar
   2    1    6 ar
   3    1    9 1
   4    2    3 ar
   5    2    8 1
   6    3    4 ar
   7    3    7 1
   8    4    5 ar
   9    4   12 1
  10    5    6 ar
  11    5   10 1
  12    6   13 1
  13   10   11 1
  14   10   14 1
  15   10   15 1
  16   11   16 1
  17   11   17 1
  18   11   18 1

#	End of record

