#	Name: ASD06170075
#	Creating user name:	WinNT
#	Creation time:	15. 06. 2019 21:05

#	Modifying user name:	WinNT
#	Modification time:	15. 06. 2019 21:05

#	Program:	/corina/corina34_cracker 3.40 0067  02.08.2006

@<TRIPOS>MOLECULE
ASD06170075
  71   75    0    0    0
SMALL
NO_CHARGES


@<TRIPOS>ATOM
   1 N1             0.0402     1.5025    -0.3743 N.pl3   
   2 N2            -0.0019     0.1182    -0.1832 N.am    
   3 C3             1.2373    -0.3092     0.1363 C.2     
   4 C4             2.1014     0.8819     0.1440 C.2     
   5 C5             1.2936     1.9546    -0.1789 C.2     
   6 C6             3.5391     0.9220     0.4373 C.2     
   7 O7             4.1365     1.9819     0.4090 O.2     
   8 N8             4.1975    -0.2149     0.7379 N.am    
   9 C9            -1.1383    -0.6884    -0.3027 C.ar    
  10 C10           -2.0079    -0.5117    -1.3711 C.ar    
  11 C11           -3.1289    -1.3101    -1.4865 C.ar    
  12 C12           -3.3859    -2.2847    -0.5397 C.ar    
  13 C13           -2.5223    -2.4629     0.5256 C.ar    
  14 C14           -1.3965    -1.6716     0.6436 C.ar    
  15 O15            1.5742    -1.4545     0.3721 O.2     
  16 C16            1.7397     3.3895    -0.2937 C.3     
  17 C17           -1.1075     2.3365    -0.7393 C.3     
  18 C18           -1.7040     2.9636     0.5224 C.3     
  19 C19           -2.9027     3.8346     0.1413 C.3     
  20 O20           -2.1301     1.9299     1.4123 O.3     
  21 C21            5.5930    -0.2060     0.8541 C.ar    
  22 C22            6.2507     0.9558     1.2373 C.ar    
  23 C23            7.6281     0.9636     1.3516 C.ar    
  24 C24            8.3537    -0.1910     1.0830 C.ar    
  25 C25            7.6961    -1.3499     0.7001 C.ar    
  26 C26            6.3189    -1.3599     0.5916 C.ar    
  27 F27            8.2689     2.0931     1.7239 F       
  28 O28            9.7090    -0.1838     1.1953 O.3     
  29 N29           11.3155    -0.1307     4.9936 N.ar    
  30 C30           10.0170    -0.0427     4.8249 C.ar    
  31 C31            9.4399    -0.0570     3.5615 C.ar    
  32 C32           10.2444    -0.1667     2.4409 C.ar    
  33 C33           11.6409    -0.2609     2.6346 C.ar    
  34 C34           12.5204    -0.3742     1.5474 C.ar    
  35 C35           13.8639    -0.4626     1.7718 C.ar    
  36 C36           14.3736    -0.4412     3.0779 C.ar    
  37 C37           13.5401    -0.3323     4.1535 C.ar    
  38 C38           12.1526    -0.2391     3.9549 C.ar    
  39 O39           15.7150    -0.5306     3.2756 O.3     
  40 C40           16.1746    -0.5035     4.6284 C.3     
  41 O41           14.7165    -0.5729     0.7182 O.3     
  42 C42           14.1357    -0.5894    -0.5873 C.3     
  43 H43            3.7048    -1.0393     0.8738 H       
  44 H44           -1.8079     0.2495    -2.1107 H       
  45 H45           -3.8057    -1.1730    -2.3169 H       
  46 H46           -4.2632    -2.9077    -0.6322 H       
  47 H47           -2.7260    -3.2246     1.2635 H       
  48 H48           -0.7201    -1.8142     1.4734 H       
  49 H49            1.6400     3.8796     0.6747 H       
  50 H50            2.7819     3.4216    -0.6115 H       
  51 H51            1.1201     3.9051    -1.0274 H       
  52 H52           -0.7825     3.1250    -1.4181 H       
  53 H53           -1.8616     1.7218    -1.2309 H       
  54 H54           -0.9499     3.5782     1.0140 H       
  55 H55           -3.6568     3.2200    -0.3503 H       
  56 H56           -3.3276     4.2814     1.0401 H       
  57 H57           -2.5777     4.6231    -0.5375 H       
  58 H58           -2.8025     1.3429     1.0402 H       
  59 H59            5.6862     1.8526     1.4456 H       
  60 H60            8.2605    -2.2466     0.4907 H       
  61 H61            5.8071    -2.2646     0.2983 H       
  62 H62            9.3795     0.0434     5.6924 H       
  63 H63            8.3677     0.0165     3.4542 H       
  64 H64           12.1363    -0.3918     0.5382 H       
  65 H65           13.9462    -0.3171     5.1541 H       
  66 H66           15.8714     0.4330     5.0964 H       
  67 H67           15.7414    -1.3404     5.1761 H       
  68 H68           17.2616    -0.5824     4.6445 H       
  69 H69           14.9240    -0.6811    -1.3345 H       
  70 H70           13.4550    -1.4366    -0.6715 H       
  71 H71           13.5851     0.3368    -0.7518 H       
@<TRIPOS>BOND
   1    1    2 1
   2    1    5 1
   3    1   17 1
   4    2    3 am
   5    2    9 1
   6    3    4 1
   7    3   15 2
   8    4    5 2
   9    4    6 1
  10    5   16 1
  11    6    7 2
  12    6    8 am
  13    8   21 1
  14    8   43 1
  15    9   10 ar
  16    9   14 ar
  17   10   11 ar
  18   10   44 1
  19   11   12 ar
  20   11   45 1
  21   12   13 ar
  22   12   46 1
  23   13   14 ar
  24   13   47 1
  25   14   48 1
  26   16   49 1
  27   16   50 1
  28   16   51 1
  29   17   18 1
  30   17   52 1
  31   17   53 1
  32   18   19 1
  33   18   20 1
  34   18   54 1
  35   19   55 1
  36   19   56 1
  37   19   57 1
  38   20   58 1
  39   21   22 ar
  40   21   26 ar
  41   22   23 ar
  42   22   59 1
  43   23   24 ar
  44   23   27 1
  45   24   25 ar
  46   24   28 1
  47   25   26 ar
  48   25   60 1
  49   26   61 1
  50   28   32 1
  51   29   30 ar
  52   29   38 ar
  53   30   31 ar
  54   30   62 1
  55   31   32 ar
  56   31   63 1
  57   32   33 ar
  58   33   34 ar
  59   33   38 ar
  60   34   35 ar
  61   34   64 1
  62   35   36 ar
  63   35   41 1
  64   36   37 ar
  65   36   39 1
  66   37   38 ar
  67   37   65 1
  68   39   40 1
  69   40   66 1
  70   40   67 1
  71   40   68 1
  72   41   42 1
  73   42   69 1
  74   42   70 1
  75   42   71 1

#	End of record

