#	Name: ASD03092494
#	Creating user name:	WinNT
#	Creation time:	15. 06. 2019 20:32

#	Modifying user name:	WinNT
#	Modification time:	15. 06. 2019 20:32

#	Program:	/corina/corina34_cracker 3.40 0067  02.08.2006

@<TRIPOS>MOLECULE
ASD03092494
  56   59    0    0    0
SMALL
NO_CHARGES


@<TRIPOS>ATOM
   1 C1            -0.1061     2.1224     0.7704 C.3     
   2 C2            -0.1157     0.6066     0.9782 C.3     
   3 C3             1.2139     1.3534     0.8547 C.3     
   4 C4            -0.5725     4.1560    -0.5697 C.2     
   5 C5            -0.5300     2.6500    -0.6018 C.3     
   6 O6            -0.2915     4.7490     0.4502 O.2     
   7 N7            -0.9229     4.8440    -1.6745 N.am    
   8 C8            -0.9642     6.3080    -1.6433 C.3     
   9 S9            -1.4023     7.7505    -5.3481 S.3     
  10 C10           -2.8732     7.4001    -4.5507 C.2     
  11 N11           -2.6408     6.9384    -3.3588 N.2     
  12 C12           -1.3817     6.8277    -2.9949 C.2     
  13 C13           -0.4954     7.2189    -3.9343 C.2     
  14 C14            3.1111     8.2637    -4.0132 C.ar    
  15 C15            1.7413     8.3217    -4.1544 C.ar    
  16 C16            0.9744     7.2036    -3.8010 C.ar    
  17 C17            1.6422     6.0704    -3.3171 C.ar    
  18 C18            3.0154     6.1002    -3.2087 C.ar    
  19 N19            3.6999     7.1755    -3.5531 N.ar    
  20 C20            3.9487     9.4568    -4.3954 C.3     
  21 F21            4.1012    10.2943    -3.2852 F       
  22 F22            5.2063     9.0239    -4.8292 F       
  23 F23            3.3162    10.1597    -5.4264 F       
  24 N24           -4.1309     7.5825    -5.0963 N.3     
  25 C25           -4.0400     8.1203    -6.4615 C.3     
  26 C26           -5.4511     8.3625    -7.0038 C.3     
  27 O27           -6.1926     7.1407    -6.9514 O.3     
  28 C28           -6.3015     6.5892    -5.6364 C.3     
  29 C29           -4.8990     6.3291    -5.0802 C.3     
  30 C30           -7.0792     5.2730    -5.6971 C.3     
  31 C31           -5.3655     8.8464    -8.4527 C.3     
  32 H32           -0.3789     2.7486     1.6198 H       
  33 H33           -0.3948     0.2356     1.9644 H       
  34 H34           -0.4240    -0.0148     0.1374 H       
  35 H35            1.7803     1.2234    -0.0675 H       
  36 H36            1.8095     1.4737     1.7595 H       
  37 H37            0.1874     2.3227    -1.3544 H       
  38 H38           -1.5186     2.2638    -0.8501 H       
  39 H39           -1.1476     4.3697    -2.4902 H       
  40 H40           -1.6816     6.6353    -0.8908 H       
  41 H41            0.0244     6.6942    -1.3951 H       
  42 H42            1.2663     9.2155    -4.5312 H       
  43 H43            1.0888     5.1875    -3.0332 H       
  44 H44            3.5392     5.2322    -2.8365 H       
  45 H45           -3.4896     9.0610    -6.4462 H       
  46 H46           -3.5222     7.4052    -7.1007 H       
  47 H47           -5.9500     9.1174    -6.3961 H       
  48 H48           -6.8251     7.2926    -4.9889 H       
  49 H49           -4.3949     5.5854    -5.6973 H       
  50 H50           -4.9756     5.9623    -4.0567 H       
  51 H51           -6.5536     4.5699    -6.3433 H       
  52 H52           -7.1618     4.8532    -4.6946 H       
  53 H53           -8.0762     5.4582    -6.0968 H       
  54 H54           -4.8682     8.0899    -9.0597 H       
  55 H55           -6.3704     9.0186    -8.8382 H       
  56 H56           -4.7969     9.7756    -8.4924 H       
@<TRIPOS>BOND
   1    1    2 1
   2    1    3 1
   3    1    5 1
   4    1   32 1
   5    2    3 1
   6    2   33 1
   7    2   34 1
   8    3   35 1
   9    3   36 1
  10    4    5 1
  11    4    6 2
  12    4    7 am
  13    5   37 1
  14    5   38 1
  15    7    8 1
  16    7   39 1
  17    8   12 1
  18    8   40 1
  19    8   41 1
  20    9   10 1
  21    9   13 1
  22   10   11 2
  23   10   24 1
  24   11   12 1
  25   12   13 2
  26   13   16 1
  27   14   15 ar
  28   14   19 ar
  29   14   20 1
  30   15   16 ar
  31   15   42 1
  32   16   17 ar
  33   17   18 ar
  34   17   43 1
  35   18   19 ar
  36   18   44 1
  37   20   21 1
  38   20   22 1
  39   20   23 1
  40   24   25 1
  41   24   29 1
  42   25   26 1
  43   25   45 1
  44   25   46 1
  45   26   27 1
  46   26   31 1
  47   26   47 1
  48   27   28 1
  49   28   29 1
  50   28   30 1
  51   28   48 1
  52   29   49 1
  53   29   50 1
  54   30   51 1
  55   30   52 1
  56   30   53 1
  57   31   54 1
  58   31   55 1
  59   31   56 1

#	End of record

