#	Name: ASD00431068
#	Creating user name:	WinNT
#	Creation time:	15. 06. 2019 18:35

#	Modifying user name:	WinNT
#	Modification time:	15. 06. 2019 18:35

#	Program:	/corina/corina34_cracker 3.40 0067  02.08.2006

@<TRIPOS>MOLECULE
ASD00431068
  87   89    0    0    0
SMALL
NO_CHARGES


@<TRIPOS>ATOM
   1 C1            -0.7907     1.7021     0.7932 C.2     
   2 C2            -1.0823     0.2448     0.9113 C.3     
   3 C3            -1.6978    -0.2640    -0.4076 C.3     
   4 C4            -0.6521     0.1633    -1.4863 C.3     
   5 C5             0.7030    -0.3776    -1.0556 C.3     
   6 C6             1.7186     0.6971    -0.7983 C.3     
   7 C7             1.6619     1.3745     0.5514 C.3     
   8 C8             0.3932     2.2140     0.6634 C.2     
   9 N9             0.7527     3.5507     0.6453 N.am    
  10 C10           -0.2233     4.6427     0.6116 C.3     
  11 C11           -0.5791     5.0421     2.0205 C.2     
  12 C12           -1.8347     5.0867     2.3914 C.2     
  13 C13           -2.9284     4.8822     1.3750 C.3     
  14 C14           -2.1854     5.3426     3.8345 C.3     
  15 C15           -2.4520     6.8354     4.0376 C.3     
  16 C16           -2.8028     7.0913     5.4807 C.2     
  17 C17           -2.1232     7.9708     6.1740 C.2     
  18 C18           -0.9906     8.7268     5.5283 C.3     
  19 C19           -2.4739     8.2267     7.6171 C.3     
  20 C20            2.7916     2.4226     0.6376 C.3     
  21 C21            2.0749     3.7513     0.6618 C.2     
  22 O22            2.6163     4.8363     0.6914 O.2     
  23 C23            3.6020     2.2296     1.9209 C.3     
  24 C24            4.7934     3.1523     1.9062 C.2     
  25 N25            5.6556     3.1561     2.9420 N.am    
  26 O26            4.9763     3.8914     0.9622 O.2     
  27 C27            6.8139     4.0531     2.9277 C.3     
  28 C28            7.6121     3.8631     4.1917 C.ar    
  29 C29            8.6287     2.9265     4.2314 C.ar    
  30 C30            7.3302     4.6292     5.3069 C.ar    
  31 C31            8.0603     4.4593     6.4689 C.ar    
  32 C32            9.0766     3.5192     6.5171 C.ar    
  33 C33            9.3637     2.7510     5.3924 C.ar    
  34 O34           10.3602     1.8265     5.4348 O.3     
  35 C35           10.5988     1.0746     4.2432 C.3     
  36 O36            9.7959     3.3511     7.6589 O.3     
  37 C37            9.4496     4.1783     8.7715 C.3     
  38 C38            1.7474     0.3660     1.6679 C.2     
  39 O39            2.0080    -0.7878     1.4212 O.2     
  40 O40            1.5341     0.7494     2.9364 O.3     
  41 C41            1.6328    -0.2754     3.9603 C.3     
  42 H42           -1.6293     2.3823     0.8128 H       
  43 H43           -0.1576    -0.2957     1.1131 H       
  44 H44           -1.7854     0.0798     1.7278 H       
  45 H45           -1.8077    -1.3483    -0.3872 H       
  46 H46           -2.6590     0.2152    -0.5931 H       
  47 H47           -0.9269    -0.2563    -2.4541 H       
  48 H48           -0.6122     1.2506    -1.5520 H       
  49 H49            0.5729    -0.9610    -0.1440 H       
  50 H50            1.0813    -1.0359    -1.8377 H       
  51 H51            2.7099     0.2588    -0.9141 H       
  52 H52            1.6006     1.4628    -1.5650 H       
  53 H53            0.2058     5.4975     0.0889 H       
  54 H54           -1.1214     4.3114     0.0901 H       
  55 H55            0.2011     5.2916     2.7244 H       
  56 H56           -3.1722     3.8217     1.3119 H       
  57 H57           -3.8141     5.4413     1.6768 H       
  58 H58           -2.5900     5.2357     0.4010 H       
  59 H59           -3.0781     4.7750     4.0976 H       
  60 H60           -1.3566     5.0317     4.4705 H       
  61 H61           -1.5594     7.4030     3.7745 H       
  62 H62           -3.2809     7.1463     3.4016 H       
  63 H63           -3.6144     6.5495     5.9434 H       
  64 H64           -1.3708     9.2967     4.6805 H       
  65 H65           -0.5478     9.4082     6.2548 H       
  66 H66           -0.2340     8.0224     5.1827 H       
  67 H67           -1.9021     7.5527     8.2550 H       
  68 H68           -2.2339     9.2590     7.8718 H       
  69 H69           -3.5394     8.0534     7.7682 H       
  70 H70            3.4397     2.3559    -0.2362 H       
  71 H71            2.9762     2.4581     2.7836 H       
  72 H72            3.9434     1.1964     1.9832 H       
  73 H73            5.5093     2.5650     3.6970 H       
  74 H74            7.4397     3.8247     2.0650 H       
  75 H75            6.4724     5.0864     2.8654 H       
  76 H76            8.8495     2.3318     3.3574 H       
  77 H77            6.5381     5.3625     5.2707 H       
  78 H78            7.8385     5.0597     7.3388 H       
  79 H79           11.4171     0.3749     4.4129 H       
  80 H80            9.6980     0.5223     3.9757 H       
  81 H81           10.8632     1.7532     3.4323 H       
  82 H82            8.4115     3.9969     9.0499 H       
  83 H83           10.0985     3.9430     9.6151 H       
  84 H84            9.5747     5.2260     8.4981 H       
  85 H85            1.4386     0.1671     4.9373 H       
  86 H86            0.8995    -1.0575     3.7635 H       
  87 H87            2.6344    -0.7053     3.9487 H       
@<TRIPOS>BOND
   1    1    2 1
   2    1    8 2
   3    1   42 1
   4    2    3 1
   5    2   43 1
   6    2   44 1
   7    3    4 1
   8    3   45 1
   9    3   46 1
  10    4    5 1
  11    4   47 1
  12    4   48 1
  13    5    6 1
  14    5   49 1
  15    5   50 1
  16    6    7 1
  17    6   51 1
  18    6   52 1
  19    7    8 1
  20    7   38 1
  21    7   20 1
  22    8    9 1
  23    9   10 1
  24    9   21 am
  25   10   11 1
  26   10   53 1
  27   10   54 1
  28   11   12 2
  29   11   55 1
  30   12   13 1
  31   12   14 1
  32   13   56 1
  33   13   57 1
  34   13   58 1
  35   14   15 1
  36   14   59 1
  37   14   60 1
  38   15   16 1
  39   15   61 1
  40   15   62 1
  41   16   17 2
  42   16   63 1
  43   17   18 1
  44   17   19 1
  45   18   64 1
  46   18   65 1
  47   18   66 1
  48   19   67 1
  49   19   68 1
  50   19   69 1
  51   20   21 1
  52   20   23 1
  53   20   70 1
  54   21   22 2
  55   23   24 1
  56   23   71 1
  57   23   72 1
  58   24   25 am
  59   24   26 2
  60   25   27 1
  61   25   73 1
  62   27   28 1
  63   27   74 1
  64   27   75 1
  65   28   29 ar
  66   28   30 ar
  67   29   33 ar
  68   29   76 1
  69   30   31 ar
  70   30   77 1
  71   31   32 ar
  72   31   78 1
  73   32   33 ar
  74   32   36 1
  75   33   34 1
  76   34   35 1
  77   35   79 1
  78   35   80 1
  79   35   81 1
  80   36   37 1
  81   37   82 1
  82   37   83 1
  83   37   84 1
  84   38   39 2
  85   38   40 1
  86   40   41 1
  87   41   85 1
  88   41   86 1
  89   41   87 1

#	End of record

