#	Name: ASD03430771
#	Creating user name:	WinNT
#	Creation time:	15. 06. 2019 20:41

#	Modifying user name:	WinNT
#	Modification time:	15. 06. 2019 20:41

#	Program:	/corina/corina34_cracker 3.40 0067  02.08.2006

@<TRIPOS>MOLECULE
ASD03430771
  38   42    0    0    0
SMALL
NO_CHARGES


@<TRIPOS>ATOM
   1 C1            -0.0167     1.3792     0.0096 C.ar    
   2 C2             0.0021    -0.0041     0.0020 C.ar    
   3 C3             1.2061    -0.6787    -0.0113 C.ar    
   4 C4             2.4114     0.0175    -0.0068 C.ar    
   5 C5             2.3901     1.4095    -0.0056 C.ar    
   6 C6             1.1845     2.0870     0.0020 C.ar    
   7 O7             3.4748    -0.8362     0.0101 O.3     
   8 C8             1.5563    -2.1422    -0.0439 C.3     
   9 C9             3.0439    -2.1410    -0.4219 C.3     
  10 C10            0.4311    -3.8607     1.0054 C.ar    
  11 C11            1.3137    -2.8174     1.2732 C.ar    
  12 C12            0.7297    -2.9040    -1.0399 C.2     
  13 N13            0.1101    -3.8851    -0.3539 N.am    
  14 O14            0.6374    -2.6800    -2.2283 O.2     
  15 C15            1.7693    -2.5965     2.5539 C.ar    
  16 C16            1.3521    -3.4146     3.5886 C.ar    
  17 C17            0.4767    -4.4546     3.3338 C.ar    
  18 C18            0.0174    -4.6800     2.0530 C.ar    
  19 N19            1.1521     3.4893     0.0006 N.am    
  20 O20           -1.1952     2.0584     0.0302 O.3     
  21 C21           -1.2045     3.3082     0.7254 C.3     
  22 C22            0.0021     4.1179     0.3270 C.2     
  23 C23            2.3477     4.2604    -0.3491 C.3     
  24 O24           -0.0582     5.3291     0.3036 O.2     
  25 H25           -0.9260    -0.5564     0.0069 H       
  26 H26            3.3180     1.9620    -0.0107 H       
  27 H27            3.1698    -2.2532    -1.4988 H       
  28 H28            3.5804    -2.9232     0.1152 H       
  29 H29           -0.4889    -4.5326    -0.7573 H       
  30 H30            2.4532    -1.7841     2.7506 H       
  31 H31            1.7095    -3.2418     4.5930 H       
  32 H32            0.1516    -5.0936     4.1416 H       
  33 H33           -0.6658    -5.4943     1.8618 H       
  34 H34           -2.1104     3.8583     0.4709 H       
  35 H35           -1.1808     3.1260     1.7998 H       
  36 H36            2.3601     4.4442    -1.4235 H       
  37 H37            2.3345     5.2121     0.1821 H       
  38 H38            3.2379     3.6988    -0.0662 H       
@<TRIPOS>BOND
   1    1    2 ar
   2    1    6 ar
   3    1   20 1
   4    2    3 ar
   5    2   25 1
   6    3    4 ar
   7    3    8 1
   8    4    5 ar
   9    4    7 1
  10    5    6 ar
  11    5   26 1
  12    6   19 1
  13    7    9 1
  14    8    9 1
  15    8   11 1
  16    8   12 1
  17    9   27 1
  18    9   28 1
  19   10   11 ar
  20   10   13 1
  21   10   18 ar
  22   11   15 ar
  23   12   13 am
  24   12   14 2
  25   13   29 1
  26   15   16 ar
  27   15   30 1
  28   16   17 ar
  29   16   31 1
  30   17   18 ar
  31   17   32 1
  32   18   33 1
  33   19   23 1
  34   19   22 am
  35   20   21 1
  36   21   22 1
  37   21   34 1
  38   21   35 1
  39   22   24 2
  40   23   36 1
  41   23   37 1
  42   23   38 1

#	End of record

