#	Name: ASD05143333
#	Creating user name:	WinNT
#	Creation time:	15. 06. 2019 20:57

#	Modifying user name:	WinNT
#	Modification time:	15. 06. 2019 20:57

#	Program:	/corina/corina34_cracker 3.40 0067  02.08.2006

@<TRIPOS>MOLECULE
ASD05143333
  52   54    0    0    0
SMALL
NO_CHARGES


@<TRIPOS>ATOM
   1 C1             0.0793     1.9694    -0.4126 C.2     
   2 N2             0.2946     1.4621     0.7852 N.2     
   3 S3            -1.2333     1.0089     1.3745 S.3     
   4 C4            -2.0874     1.5280    -0.0282 C.2     
   5 N5            -1.1690     2.0087    -0.8370 N.2     
   6 N6            -3.4499     1.4587    -0.2537 N.pl3   
   7 C7            -4.0047     2.0760    -1.3791 C.ar    
   8 C8            -3.4169     1.9065    -2.6277 C.ar    
   9 C9            -3.9680     2.5181    -3.7373 C.ar    
  10 C10            1.5018     1.3275     1.4230 C.ar    
  11 C11            2.3633     2.4189     1.5304 C.ar    
  12 C12            1.8727     0.0947     1.9746 C.ar    
  13 C13            3.0924    -0.0313     2.6165 C.ar    
  14 C14            3.9411     1.0568     2.7130 C.ar    
  15 C15            3.5764     2.2774     2.1737 C.ar    
  16 C16            1.1926     2.4798    -1.2448 C.ar    
  17 C17            1.1028     3.7426    -1.8415 C.ar    
  18 C18            2.3375     1.7073    -1.4329 C.ar    
  19 C19            3.3724     2.1882    -2.2092 C.ar    
  20 C20            3.2781     3.4349    -2.8020 C.ar    
  21 C21            2.1496     4.2119    -2.6179 C.ar    
  22 O22            1.0380    -0.9736     1.8802 O.3     
  23 C23            1.4832    -2.1986     2.4662 C.3     
  24 O24           -0.0067     4.5050    -1.6603 O.3     
  25 C25           -0.0731     5.7359    -2.3831 C.3     
  26 C26           -5.1025     3.2984    -3.6064 C.ar    
  27 C27           -5.6891     3.4687    -2.3661 C.ar    
  28 C28           -5.1471     2.8551    -1.2533 C.ar    
  29 C29           -5.7879     3.0414     0.0979 C.3     
  30 Cl30          -1.9922     0.9282    -2.7921 Cl      
  31 H31           -4.0209     0.9819     0.3689 H       
  32 H32           -3.5123     2.3871    -4.7076 H       
  33 H33            2.0818     3.3734     1.1106 H       
  34 H34            3.3818    -0.9804     3.0430 H       
  35 H35            4.8915     0.9539     3.2154 H       
  36 H36            4.2448     3.1220     2.2533 H       
  37 H37            2.4149     0.7339    -0.9716 H       
  38 H38            4.2593     1.5892    -2.3542 H       
  39 H39            4.0920     3.8046    -3.4081 H       
  40 H40            2.0823     5.1841    -3.0834 H       
  41 H41            2.4136    -2.5111     1.9921 H       
  42 H42            1.6507    -2.0511     3.5331 H       
  43 H43            0.7248    -2.9678     2.3203 H       
  44 H44            0.7272     6.3966    -2.0498 H       
  45 H45            0.0394     5.5379    -3.4490 H       
  46 H46           -1.0367     6.2122    -2.2017 H       
  47 H47           -5.5310     3.7760    -4.4752 H       
  48 H48           -6.5747     4.0789    -2.2677 H       
  49 H49           -6.5332     2.2622     0.2571 H       
  50 H50           -5.0248     2.9782     0.8737 H       
  51 H51           -6.2690     4.0185     0.1402 H       
  52 Br52           9.8915    11.3966     8.5331 Br      
@<TRIPOS>BOND
   1    1    2 2
   2    1   16 1
   3    1    5 1
   4    2    3 1
   5    2   10 1
   6    3    4 1
   7    4    5 2
   8    4    6 1
   9    6    7 1
  10    6   31 1
  11    7    8 ar
  12    7   28 ar
  13    8    9 ar
  14    8   30 1
  15    9   26 ar
  16    9   32 1
  17   10   11 ar
  18   10   12 ar
  19   11   15 ar
  20   11   33 1
  21   12   13 ar
  22   12   22 1
  23   13   14 ar
  24   13   34 1
  25   14   15 ar
  26   14   35 1
  27   15   36 1
  28   16   17 ar
  29   16   18 ar
  30   17   24 1
  31   17   21 ar
  32   18   19 ar
  33   18   37 1
  34   19   20 ar
  35   19   38 1
  36   20   21 ar
  37   20   39 1
  38   21   40 1
  39   22   23 1
  40   23   41 1
  41   23   42 1
  42   23   43 1
  43   24   25 1
  44   25   44 1
  45   25   45 1
  46   25   46 1
  47   26   27 ar
  48   26   47 1
  49   27   28 ar
  50   27   48 1
  51   28   29 1
  52   29   49 1
  53   29   50 1
  54   29   51 1

#	End of record

