#	Name: ASD01411042
#	Creating user name:	WinNT
#	Creation time:	15. 06. 2019 19:19

#	Modifying user name:	WinNT
#	Modification time:	15. 06. 2019 19:19

#	Program:	/corina/corina34_cracker 3.40 0067  02.08.2006

@<TRIPOS>MOLECULE
ASD01411042
  36   37    0    0    0
SMALL
NO_CHARGES


@<TRIPOS>ATOM
   1 C1            -0.0133     1.7489     0.2914 C.2     
   2 S2            -0.0036     0.0059    -0.0292 S.3     
   3 C3            -1.7605    -0.1792     0.1410 C.2     
   4 C4            -2.2344     1.1771     0.4446 C.2     
   5 N5            -1.2865     2.0974     0.5091 N.am    
   6 O6            -3.4097     1.4342     0.6278 O.2     
   7 S7             1.3476     2.7871     0.3235 S.2     
   8 C8            -2.4963    -1.3126     0.0184 C.2     
   9 C9            -1.8257    -2.6138    -0.1058 C.ar    
  10 C10           -1.6298     3.4905     0.8050 C.3     
  11 C11           -0.4910    -2.7579     0.2896 C.ar    
  12 C12            0.1312    -3.9819     0.1705 C.ar    
  13 C13           -0.5607    -5.0689    -0.3392 C.ar    
  14 C14           -1.8819    -4.9354    -0.7335 C.ar    
  15 C15           -2.5208    -3.7184    -0.6153 C.ar    
  16 C16           -0.9164     3.9308     2.0849 C.3     
  17 C17           -1.4492     3.1223     3.2696 C.3     
  18 Cl18          -4.1766    -3.5526    -1.1100 Cl      
  19 Cl19           0.2327    -6.6061    -0.4849 Cl      
  20 C20           -0.7358     3.5625     4.5495 C.3     
  21 C21           -1.1953     4.3689    -0.3399 C.2     
  22 O22           -0.6543     3.8813    -1.3040 O.2     
  23 O23           -1.4091     5.6931    -0.2885 O.3     
  24 H24           -3.5749    -1.2581     0.0122 H       
  25 H25           -2.7077     3.5780     0.9413 H       
  26 H26            0.0502    -1.9120     0.6868 H       
  27 H27            1.1613    -4.0941     0.4751 H       
  28 H28           -2.4144    -5.7870    -1.1305 H       
  29 H29            0.1550     3.7598     1.9808 H       
  30 H30           -1.1002     4.9913     2.2568 H       
  31 H31           -2.5207     3.2932     3.3736 H       
  32 H32           -1.2655     2.0617     3.0976 H       
  33 H33           -0.9195     4.6231     4.7214 H       
  34 H34           -1.1154     2.9866     5.3935 H       
  35 H35            0.3356     3.3916     4.4454 H       
  36 H36           -1.1129     6.2153    -1.0465 H       
@<TRIPOS>BOND
   1    1    2 1
   2    1    7 2
   3    1    5 am
   4    2    3 1
   5    3    4 1
   6    3    8 2
   7    4    5 am
   8    4    6 2
   9    5   10 1
  10    8    9 1
  11    8   24 1
  12    9   11 ar
  13    9   15 ar
  14   10   16 1
  15   10   21 1
  16   10   25 1
  17   11   12 ar
  18   11   26 1
  19   12   13 ar
  20   12   27 1
  21   13   14 ar
  22   13   19 1
  23   14   15 ar
  24   14   28 1
  25   15   18 1
  26   16   17 1
  27   16   29 1
  28   16   30 1
  29   17   20 1
  30   17   31 1
  31   17   32 1
  32   20   33 1
  33   20   34 1
  34   20   35 1
  35   21   22 2
  36   21   23 1
  37   23   36 1

#	End of record

