#	Name: ASD01885654
#	Creating user name:	WinNT
#	Creation time:	15. 06. 2019 19:49

#	Modifying user name:	WinNT
#	Modification time:	15. 06. 2019 19:49

#	Program:	/corina/corina34_cracker 3.40 0067  02.08.2006

@<TRIPOS>MOLECULE
ASD01885654
  54   58    0    0    0
SMALL
NO_CHARGES


@<TRIPOS>ATOM
   1 C1            -0.0170     1.4041     0.0098 C.ar    
   2 C2             1.2136     2.1082     0.0018 C.ar    
   3 C3             1.1959     3.5259     0.0097 C.ar    
   4 C4            -0.0388     4.1602     0.0249 C.ar    
   5 C5            -1.2084     3.3917     0.0319 C.ar    
   6 N6            -1.1703     2.0727     0.0299 N.ar    
   7 C7             0.0021    -0.0041     0.0020 C.ar    
   8 C8             1.1922    -0.6628    -0.0129 C.ar    
   9 C9             2.3993     0.0338    -0.0203 C.ar    
  10 C10            2.4201     1.3962    -0.0132 C.ar    
  11 C11            2.4548     4.3054     0.0024 C.ar    
  12 C12            2.6330     5.3384    -0.9182 C.ar    
  13 C13            3.8074     6.0615    -0.9210 C.ar    
  14 C14            4.8096     5.7633    -0.0113 C.ar    
  15 C15            4.6374     4.7381     0.9052 C.ar    
  16 C16            3.4644     4.0129     0.9198 C.ar    
  17 C17           -2.5233     4.0769     0.0552 C.2     
  18 N18           -3.6601     3.3531     0.0740 N.am    
  19 O19           -2.5758     5.2907     0.0574 O.2     
  20 C20            1.2056    -2.1697    -0.0211 C.3     
  21 F21            5.9585     6.4742    -0.0183 F       
  22 N22            1.1967    -2.6506    -1.4049 N.am    
  23 C23            2.3202    -2.8791    -2.1023 C.2     
  24 C24            1.9482    -3.3622    -3.4776 C.3     
  25 C25            0.4144    -3.3801    -3.4742 C.3     
  26 C26            0.0659    -2.9044    -2.0781 C.2     
  27 O27            3.4498    -2.7220    -1.6914 O.2     
  28 O28           -1.0570    -2.7684    -1.6420 O.2     
  29 C29            2.4867    -2.4310    -4.5657 C.3     
  30 C30            3.3800    -3.3021    -5.4770 C.3     
  31 C31            2.8532    -4.7434    -5.2610 C.3     
  32 C32            2.5115    -4.7632    -3.7483 C.3     
  33 H33           -0.0964     5.2386     0.0317 H       
  34 H34           -0.9245    -0.5588     0.0083 H       
  35 H35            3.3303    -0.5134    -0.0315 H       
  36 H36            3.3620     1.9245    -0.0186 H       
  37 H37            1.8528     5.5713    -1.6277 H       
  38 H38            3.9464     6.8611    -1.6335 H       
  39 H39            5.4214     4.5093     1.6118 H       
  40 H40            3.3311     3.2142     1.6344 H       
  41 H41           -3.6181     2.3840     0.0723 H       
  42 H42           -4.5202     3.8013     0.0893 H       
  43 H43            2.1037    -2.5278     0.4822 H       
  44 H44            0.3238    -2.5437     0.4992 H       
  45 H45            0.0200    -2.6971    -4.2265 H       
  46 H46            0.0411    -4.3911    -3.6372 H       
  47 H47            1.6617    -2.0107    -5.1410 H       
  48 H48            3.0763    -1.6317    -4.1167 H       
  49 H49            3.2647    -3.0061    -6.5196 H       
  50 H50            4.4237    -3.2277    -5.1716 H       
  51 H51            1.9606    -4.9219    -5.8606 H       
  52 H52            3.6270    -5.4757    -5.4915 H       
  53 H53            3.4101    -4.9350    -3.1557 H       
  54 H54            1.7610    -5.5246    -3.5359 H       
@<TRIPOS>BOND
   1    1    7 ar
   2    1    2 ar
   3    1    6 ar
   4    2    3 ar
   5    2   10 ar
   6    3   11 1
   7    3    4 ar
   8    4    5 ar
   9    4   33 1
  10    5   17 1
  11    5    6 ar
  12    7    8 ar
  13    7   34 1
  14    8    9 ar
  15    8   20 1
  16    9   10 ar
  17    9   35 1
  18   10   36 1
  19   11   12 ar
  20   11   16 ar
  21   12   13 ar
  22   12   37 1
  23   13   14 ar
  24   13   38 1
  25   14   15 ar
  26   14   21 1
  27   15   16 ar
  28   15   39 1
  29   16   40 1
  30   17   18 am
  31   17   19 2
  32   18   41 1
  33   18   42 1
  34   20   22 1
  35   20   43 1
  36   20   44 1
  37   22   23 am
  38   22   26 am
  39   23   24 1
  40   23   27 2
  41   24   25 1
  42   24   29 1
  43   24   32 1
  44   25   26 1
  45   25   45 1
  46   25   46 1
  47   26   28 2
  48   29   30 1
  49   29   47 1
  50   29   48 1
  51   30   31 1
  52   30   49 1
  53   30   50 1
  54   31   32 1
  55   31   51 1
  56   31   52 1
  57   32   53 1
  58   32   54 1

#	End of record

