#	Name: ASD01140588
#	Creating user name:	WinNT
#	Creation time:	15. 06. 2019 19:01

#	Modifying user name:	WinNT
#	Modification time:	15. 06. 2019 19:01

#	Program:	/corina/corina34_cracker 3.40 0067  02.08.2006

@<TRIPOS>MOLECULE
ASD01140588
  42   44    0    0    0
SMALL
NO_CHARGES


@<TRIPOS>ATOM
   1 S1            -0.0172     1.4168     0.0098 S.o     
   2 O2             2.7576     3.3578     4.5807 O.3     
   3 O3             0.0021    -0.0041     0.0020 O.2     
   4 O4            -2.9215     4.4367    -6.1192 O.3     
   5 N5            -0.4946     1.0044    -2.6911 N.pl3   
   6 N6             2.9797     0.6445     1.5261 N.ar    
   7 N7            -1.1912     2.9268    -1.9323 N.2     
   8 N8            -2.1095     3.7807    -4.0585 N.ar    
   9 C9             2.3293     1.7761     1.3324 C.ar    
  10 C10            1.6846     2.0446    -0.0030 C.3     
  11 C11            2.2316     2.7165     2.3376 C.ar    
  12 C12            2.8311     2.4576     3.5674 C.ar    
  13 C13           -0.5985     1.8142    -1.6053 C.2     
  14 C14            3.5086     1.2517     3.7311 C.ar    
  15 C15           -1.0658     1.6736    -3.7559 C.ar    
  16 C16           -1.5084     2.9072    -3.2510 C.ar    
  17 C17            1.4867     4.0061     2.1073 C.3     
  18 C18            3.5611     0.3633     2.6770 C.ar    
  19 C19            4.1751     0.9219     5.0419 C.3     
  20 C20           -1.2599     1.3731    -5.0994 C.ar    
  21 C21           -1.8885     2.3110    -5.8962 C.ar    
  22 C22           -2.3043     3.5164    -5.3357 C.ar    
  23 C23            1.6480     3.2403     5.4735 C.3     
  24 C24           -3.3265     5.6554    -5.4923 C.3     
  25 H25            2.2511     1.5427    -0.7874 H       
  26 H26            1.6745     3.1180    -0.1923 H       
  27 H27           -0.0910     0.1227    -2.7151 H       
  28 H28            0.4398     3.8749     2.3811 H       
  29 H29            1.9263     4.7938     2.7191 H       
  30 H30            1.5552     4.2823     1.0551 H       
  31 H31            4.0840    -0.5742     2.7953 H       
  32 H32           -0.9277     0.4310    -5.5099 H       
  33 H33            3.4687     0.4000     5.6875 H       
  34 H34            5.0400     0.2842     4.8594 H       
  35 H35            4.4985     1.8429     5.5269 H       
  36 H36           -2.0555     2.1113    -6.9443 H       
  37 H37            1.6689     2.2614     5.9523 H       
  38 H38            1.7100     4.0184     6.2344 H       
  39 H39            0.7187     3.3517     4.9148 H       
  40 H40           -2.4526     6.1601    -5.0805 H       
  41 H41           -3.8056     6.3008    -6.2285 H       
  42 H42           -4.0303     5.4347    -4.6898 H       
@<TRIPOS>BOND
   1    1    3 2
   2    1   10 1
   3    1   13 1
   4    2   12 1
   5    2   23 1
   6    4   22 1
   7    4   24 1
   8    5   13 1
   9    5   15 1
  10    5   27 1
  11    6    9 ar
  12    6   18 ar
  13    7   13 2
  14    7   16 1
  15    8   16 ar
  16    8   22 ar
  17    9   10 1
  18    9   11 ar
  19   10   25 1
  20   10   26 1
  21   11   12 ar
  22   11   17 1
  23   12   14 ar
  24   14   18 ar
  25   14   19 1
  26   15   16 ar
  27   15   20 ar
  28   17   28 1
  29   17   29 1
  30   17   30 1
  31   18   31 1
  32   19   33 1
  33   19   34 1
  34   19   35 1
  35   20   21 ar
  36   20   32 1
  37   21   22 ar
  38   21   36 1
  39   23   37 1
  40   23   38 1
  41   23   39 1
  42   24   40 1
  43   24   41 1
  44   24   42 1

#	End of record

