#	Name: ASD01884819
#	Creating user name:	WinNT
#	Creation time:	15. 06. 2019 19:48

#	Modifying user name:	WinNT
#	Modification time:	15. 06. 2019 19:48

#	Program:	/corina/corina34_cracker 3.40 0067  02.08.2006

@<TRIPOS>MOLECULE
ASD01884819
  50   53    0    0    0
SMALL
NO_CHARGES


@<TRIPOS>ATOM
   1 C1            -0.0173     1.4248     0.0099 C.3     
   2 O2             0.0021    -0.0041     0.0020 O.3     
   3 C3            -1.1983    -0.6364     0.0101 C.ar    
   4 C4            -1.2445    -2.0244     0.0088 C.ar    
   5 C5            -2.4755    -2.6573     0.0171 C.ar    
   6 C6            -2.5687    -4.1615     0.0165 C.3     
   7 N7            -2.5891    -4.6514     1.4012 N.3     
   8 C8            -3.7013    -4.0525     2.1562 C.3     
   9 C9            -3.9008    -4.8553     3.4424 C.3     
  10 C10           -2.5839    -5.0209     4.1538 C.ar    
  11 C11           -1.3789    -4.8048     3.5184 C.ar    
  12 C12           -1.3143    -4.3812     2.0729 C.3     
  13 N13           -0.2406    -4.9641     4.1728 N.ar    
  14 C14           -0.1970    -5.3281     5.4461 C.ar    
  15 C15           -1.3697    -5.5617     6.1567 C.ar    
  16 C16           -2.5920    -5.4064     5.5000 C.ar    
  17 C17           -3.8709    -5.6442     6.2126 C.ar    
  18 C18           -4.2464    -4.8173     7.2694 C.ar    
  19 C19           -5.4372    -5.0418     7.9293 C.ar    
  20 C20           -6.2596    -6.0880     7.5432 C.ar    
  21 F21           -7.4243    -6.3039     8.1929 F       
  22 C22           -5.8915    -6.9131     6.4928 C.ar    
  23 C23           -4.7044    -6.6931     5.8231 C.ar    
  24 Cl24          -4.2466    -7.7236     4.5032 Cl      
  25 C25            1.1133    -5.4883     6.1192 C.2     
  26 N26            2.2535    -5.2639     5.4365 N.am    
  27 O27            1.1598    -5.8219     7.2867 O.2     
  28 C28           -3.6218    -1.8752     0.0264 C.ar    
  29 C29           -3.5011    -0.4995     0.0271 C.ar    
  30 N30           -2.3134     0.0750     0.0245 N.ar    
  31 H31            1.0053     1.8021     0.0021 H       
  32 H32           -0.5445     1.7859    -0.8732 H       
  33 H33           -0.5275     1.7763     0.9067 H       
  34 H34           -0.3321    -2.6023     0.0011 H       
  35 H35           -3.4831    -4.4686    -0.4911 H       
  36 H36           -1.7066    -4.5787    -0.5039 H       
  37 H37           -3.4614    -3.0183     2.4033 H       
  38 H38           -4.6114    -4.0876     1.5575 H       
  39 H39           -4.5998    -4.3293     4.0926 H       
  40 H40           -4.3056    -5.8371     3.1971 H       
  41 H41           -0.5195    -4.9335     1.5716 H       
  42 H42           -1.0988    -3.3141     2.0199 H       
  43 H43           -1.3354    -5.8576     7.1948 H       
  44 H44           -3.6061    -4.0019     7.5719 H       
  45 H45           -5.7286    -4.4011     8.7484 H       
  46 H46           -6.5358    -7.7272     6.1951 H       
  47 H47            2.2163    -4.9976     4.5045 H       
  48 H48            3.1112    -5.3688     5.8771 H       
  49 H49           -4.5979    -2.3374     0.0327 H       
  50 H50           -4.3900     0.1137     0.0344 H       
@<TRIPOS>BOND
   1    1    2 1
   2    1   31 1
   3    1   32 1
   4    1   33 1
   5    2    3 1
   6    3   30 ar
   7    3    4 ar
   8    4    5 ar
   9    4   34 1
  10    5    6 1
  11    5   28 ar
  12    6    7 1
  13    6   35 1
  14    6   36 1
  15    7   12 1
  16    7    8 1
  17    8    9 1
  18    8   37 1
  19    8   38 1
  20    9   10 1
  21    9   39 1
  22    9   40 1
  23   10   16 ar
  24   10   11 ar
  25   11   12 1
  26   11   13 ar
  27   12   41 1
  28   12   42 1
  29   13   14 ar
  30   14   15 ar
  31   14   25 1
  32   15   16 ar
  33   15   43 1
  34   16   17 1
  35   17   23 ar
  36   17   18 ar
  37   18   19 ar
  38   18   44 1
  39   19   20 ar
  40   19   45 1
  41   20   21 1
  42   20   22 ar
  43   22   23 ar
  44   22   46 1
  45   23   24 1
  46   25   26 am
  47   25   27 2
  48   26   47 1
  49   26   48 1
  50   28   29 ar
  51   28   49 1
  52   29   30 ar
  53   29   50 1

#	End of record

