#	Name: ASD01810147
#	Creating user name:	WinNT
#	Creation time:	15. 06. 2019 19:23

#	Modifying user name:	WinNT
#	Modification time:	15. 06. 2019 19:23

#	Program:	/corina/corina34_cracker 3.40 0067  02.08.2006

@<TRIPOS>MOLECULE
ASD01810147
  34   36    0    0    0
SMALL
NO_CHARGES


@<TRIPOS>ATOM
   1 C1             0.7387     2.0132     0.0811 C.ar    
   2 C2             0.4889     0.6499     0.1071 C.ar    
   3 C3             1.5250    -0.2580     0.0567 C.ar    
   4 C4             2.8404     0.1895    -0.0212 C.ar    
   5 C5             3.0943     1.5719    -0.0481 C.ar    
   6 C6             2.0353     2.4816     0.0036 C.ar    
   7 N7             3.8839    -0.7097    -0.0711 N.pl3   
   8 C8             5.1661    -0.3298    -0.1457 C.2     
   9 C9             5.5388     0.9986    -0.1783 C.2     
  10 C10            4.4916     2.0324    -0.1308 C.2     
  11 O11            4.7687     3.2188    -0.1571 O.2     
  12 C12            6.9570     1.3749    -0.2599 C.2     
  13 O13            7.3084     2.6760    -0.2910 O.3     
  14 O14            7.8133     0.5130    -0.2994 O.2     
  15 C15            3.5775    -2.1419    -0.0409 C.3     
  16 C16            3.7055    -2.6533     1.3710 C.ar    
  17 C17            2.5809    -2.7715     2.1694 C.ar    
  18 C18            2.6997    -3.2414     3.4665 C.ar    
  19 C19            3.9405    -3.5923     3.9640 C.ar    
  20 C20            5.0640    -3.4742     3.1679 C.ar    
  21 C21            4.9468    -3.0104     1.8684 C.ar    
  22 F22            6.0452    -2.8955     1.0903 F       
  23 F23            1.3680    -2.4282     1.6834 F       
  24 F24            2.2782     3.8103    -0.0221 F       
  25 H25           -0.0843     2.7116     0.1172 H       
  26 H26           -0.5293     0.2950     0.1678 H       
  27 H27            1.3157    -1.3173     0.0781 H       
  28 H28            5.9340    -1.0884    -0.1812 H       
  29 H29            8.2533     2.8744    -0.3450 H       
  30 H30            2.5593    -2.3032    -0.3948 H       
  31 H31            4.2752    -2.6765    -0.6855 H       
  32 H32            1.8225    -3.3335     4.0897 H       
  33 H33            4.0322    -3.9587     4.9758 H       
  34 H34            6.0332    -3.7480     3.5580 H       
@<TRIPOS>BOND
   1    1    2 ar
   2    1    6 ar
   3    1   25 1
   4    2    3 ar
   5    2   26 1
   6    3    4 ar
   7    3   27 1
   8    4    5 ar
   9    4    7 1
  10    5    6 ar
  11    5   10 1
  12    6   24 1
  13    7    8 1
  14    7   15 1
  15    8    9 2
  16    8   28 1
  17    9   10 1
  18    9   12 1
  19   10   11 2
  20   12   13 1
  21   12   14 2
  22   13   29 1
  23   15   16 1
  24   15   30 1
  25   15   31 1
  26   16   17 ar
  27   16   21 ar
  28   17   18 ar
  29   17   23 1
  30   18   19 ar
  31   18   32 1
  32   19   20 ar
  33   19   33 1
  34   20   21 ar
  35   20   34 1
  36   21   22 1

#	End of record

