#	Name: ASD01901015
#	Creating user name:	WinNT
#	Creation time:	15. 06. 2019 19:53

#	Modifying user name:	WinNT
#	Modification time:	15. 06. 2019 19:53

#	Program:	/corina/corina34_cracker 3.40 0067  02.08.2006

@<TRIPOS>MOLECULE
ASD01901015
  26   27    0    0    0
SMALL
NO_CHARGES


@<TRIPOS>ATOM
   1 C1            -0.0159     1.3188     0.0093 C.ar    
   2 N2             0.0021    -0.0041     0.0020 N.ar    
   3 C3             1.1600    -0.6671    -0.0126 C.ar    
   4 C4             2.3582     0.0618    -0.0201 C.ar    
   5 C5             2.2877     1.4432    -0.0120 C.ar    
   6 N6             1.1012     2.0317     0.0025 N.ar    
   7 N7            -1.2346     1.9761     0.0186 N.pl3   
   8 C8             1.1794    -2.1391    -0.0202 C.2     
   9 C9             0.0249    -2.8263    -0.0124 C.2     
  10 C10            0.0443    -4.2996    -0.0200 C.ar    
  11 C11           -1.1546    -5.0178    -0.0120 C.ar    
  12 C12           -1.1284    -6.3967    -0.0197 C.ar    
  13 C13            0.0809    -7.0691    -0.0349 C.ar    
  14 C14            1.2721    -6.3648    -0.0429 C.ar    
  15 C15            1.2617    -4.9857    -0.0412 C.ar    
  16 Cl16           3.8926    -0.7500    -0.0385 Cl      
  17 H17            3.1906     2.0357    -0.0171 H       
  18 H18           -2.0603     1.4670     0.0197 H       
  19 H19           -1.2627     2.9457     0.0240 H       
  20 H20            2.1217    -2.6667    -0.0320 H       
  21 H21           -0.9174    -2.2987    -0.0006 H       
  22 H22           -2.0991    -4.4943     0.0005 H       
  23 H23           -2.0541    -6.9530    -0.0135 H       
  24 H24            0.0952    -8.1490    -0.0401 H       
  25 H25            2.2121    -6.8964    -0.0544 H       
  26 H26            2.1921    -4.4373    -0.0520 H       
@<TRIPOS>BOND
   1    1    2 ar
   2    1    6 ar
   3    1    7 1
   4    2    3 ar
   5    3    4 ar
   6    3    8 1
   7    4    5 ar
   8    4   16 1
   9    5    6 ar
  10    5   17 1
  11    7   18 1
  12    7   19 1
  13    8    9 2
  14    8   20 1
  15    9   10 1
  16    9   21 1
  17   10   11 ar
  18   10   15 ar
  19   11   12 ar
  20   11   22 1
  21   12   13 ar
  22   12   23 1
  23   13   14 ar
  24   13   24 1
  25   14   15 ar
  26   14   25 1
  27   15   26 1

#	End of record

