#	Name: ASD03910092
#	Creating user name:	WinNT
#	Creation time:	15. 06. 2019 20:47

#	Modifying user name:	WinNT
#	Modification time:	15. 06. 2019 20:47

#	Program:	/corina/corina34_cracker 3.40 0067  02.08.2006

@<TRIPOS>MOLECULE
ASD03910092
  41   42    0    0    0
SMALL
NO_CHARGES


@<TRIPOS>ATOM
   1 C1            -1.1303    -0.3462     1.2712 C.2     
   2 C2             0.0832     0.3054     0.6598 C.3     
   3 C3             0.3122    -0.2584    -0.7439 C.3     
   4 O4            -1.0258    -0.9747     2.2978 O.2     
   5 O5            -2.3282    -0.2238     0.6782 O.3     
   6 C6            -0.1391     1.8167     0.5723 C.3     
   7 O7             1.2277     0.0386     1.4728 O.3     
   8 C8             1.5677    -1.2659     1.6510 C.ar    
   9 C9             2.7324    -1.5921     2.3301 C.ar    
  10 C10            3.0786    -2.9167     2.5110 C.ar    
  11 C11            2.2604    -3.9219     2.0134 C.ar    
  12 C12            1.0946    -3.5947     1.3342 C.ar    
  13 C13            0.7469    -2.2698     1.1585 C.ar    
  14 N14            2.6113    -5.2663     2.1962 N.am    
  15 C15            3.9091    -5.6299     2.1965 C.2     
  16 N16            4.2517    -6.9047     2.4688 N.am    
  17 O17            4.7709    -4.8080     1.9510 O.2     
  18 C18            5.6019    -7.2602     2.5703 C.ar    
  19 C19            6.0018    -8.2153     3.4955 C.ar    
  20 C20            7.3353    -8.5647     3.5933 C.ar    
  21 C21            8.2720    -7.9624     2.7696 C.ar    
  22 C22            7.8751    -7.0107     1.8475 C.ar    
  23 C23            6.5424    -6.6624     1.7422 C.ar    
  24 Cl24           9.9467    -8.4021     2.8951 Cl      
  25 Cl25           7.8368    -9.7587     4.7495 Cl      
  26 H26           -0.6086    -0.1792    -1.3220 H       
  27 H27            1.1015     0.3075    -1.2386 H       
  28 H28            0.6066    -1.3054    -0.6714 H       
  29 H29           -3.0772    -0.6594     1.1076 H       
  30 H30           -0.3883     2.2050     1.5598 H       
  31 H31            0.7703     2.2974     0.2117 H       
  32 H32           -0.9576     2.0242    -0.1169 H       
  33 H33            3.3688    -0.8101     2.7172 H       
  34 H34            3.9858    -3.1706     3.0392 H       
  35 H35            0.4577    -4.3762     0.9468 H       
  36 H36           -0.1622    -2.0151     0.6340 H       
  37 H37            1.9202    -5.9351     2.3226 H       
  38 H38            3.5627    -7.5758     2.5944 H       
  39 H39            5.2715    -8.6844     4.1382 H       
  40 H40            8.6073    -6.5425     1.2063 H       
  41 H41            6.2329    -5.9226     1.0188 H       
@<TRIPOS>BOND
   1    1    2 1
   2    1    4 2
   3    1    5 1
   4    2    3 1
   5    2    6 1
   6    2    7 1
   7    3   26 1
   8    3   27 1
   9    3   28 1
  10    5   29 1
  11    6   30 1
  12    6   31 1
  13    6   32 1
  14    7    8 1
  15    8    9 ar
  16    8   13 ar
  17    9   10 ar
  18    9   33 1
  19   10   11 ar
  20   10   34 1
  21   11   12 ar
  22   11   14 1
  23   12   13 ar
  24   12   35 1
  25   13   36 1
  26   14   15 am
  27   14   37 1
  28   15   16 am
  29   15   17 2
  30   16   18 1
  31   16   38 1
  32   18   19 ar
  33   18   23 ar
  34   19   20 ar
  35   19   39 1
  36   20   21 ar
  37   20   25 1
  38   21   22 ar
  39   21   24 1
  40   22   23 ar
  41   22   40 1
  42   23   41 1

#	End of record

