#	Name: ASD05940021
#	Creating user name:	WinNT
#	Creation time:	15. 06. 2019 21:04

#	Modifying user name:	WinNT
#	Modification time:	15. 06. 2019 21:04

#	Program:	/corina/corina34_cracker 3.40 0067  02.08.2006

@<TRIPOS>MOLECULE
ASD05940021
  49   51    0    0    0
SMALL
NO_CHARGES


@<TRIPOS>ATOM
   1 N1            -0.0062     1.3295    -0.0072 N.ar    
   2 C2             0.0071     0.0072    -0.0145 C.ar    
   3 N3             1.1346    -0.6857    -0.0209 N.ar    
   4 C4             2.3115    -0.0648    -0.0205 C.ar    
   5 C5             2.3371     1.3289    -0.0171 C.ar    
   6 C6             1.1317     2.0242    -0.0085 C.ar    
   7 N7             3.4936    -0.7851    -0.0182 N.3     
   8 C8             4.5413    -0.1282    -0.8061 C.3     
   9 C9             4.6742     1.3154    -0.3951 C.2     
  10 N10            3.5696     2.0038    -0.0265 N.am    
  11 N11            1.1145     3.4124    -0.0021 N.pl3   
  12 O12           -1.1723    -0.6602    -0.0150 O.3     
  13 C13            3.2722    -2.1617    -0.4807 C.3     
  14 O14            5.7608     1.8548    -0.3950 O.2     
  15 C15           -2.3640     0.1284    -0.0075 C.3     
  16 C16           -3.5854    -0.7931    -0.0093 C.3     
  17 C17           -4.8613     0.0513    -0.0013 C.3     
  18 C18           -6.0826    -0.8702    -0.0031 C.3     
  19 C19            4.6010    -2.8351    -0.7081 C.ar    
  20 C20            4.7740    -3.6656    -1.8012 C.ar    
  21 C21            5.6442    -2.6156     0.1739 C.ar    
  22 C22            6.8634    -3.2284    -0.0286 C.ar    
  23 C23            7.0433    -4.0719    -1.1267 C.ar    
  24 C24            5.9879    -4.2848    -2.0157 C.ar    
  25 C25            2.4833    -2.9348     0.5781 C.3     
  26 C26            8.3062    -4.7114    -1.3431 C.1     
  27 N27            9.3080    -5.2187    -1.5148 N.1     
  28 H28            5.4901    -0.6391    -0.6423 H       
  29 H29            4.2836    -0.1802    -1.8639 H       
  30 H30            3.6267     2.9390     0.2244 H       
  31 H31            1.9484     3.9078    -0.0038 H       
  32 H32            0.2685     3.8869     0.0039 H       
  33 H33            2.7087    -2.1454    -1.4136 H       
  34 H34           -2.3810     0.7525     0.8860 H       
  35 H35           -2.3858     0.7623    -0.8940 H       
  36 H36           -3.5683    -1.4172    -0.9028 H       
  37 H37           -3.5636    -1.4270     0.8772 H       
  38 H38           -4.8783     0.6754     0.8922 H       
  39 H39           -4.8830     0.6852    -0.8877 H       
  40 H40           -6.9916    -0.2687     0.0027 H       
  41 H41           -6.0656    -1.4943    -0.8965 H       
  42 H42           -6.0608    -1.5041     0.8834 H       
  43 H43            3.9567    -3.8297    -2.4879 H       
  44 H44            5.5037    -1.9626     1.0226 H       
  45 H45            7.6769    -3.0559     0.6605 H       
  46 H46            6.1202    -4.9363    -2.8669 H       
  47 H47            1.5607    -2.4008     0.8057 H       
  48 H48            2.2440    -3.9284     0.1993 H       
  49 H49            3.0832    -3.0259     1.4836 H       
@<TRIPOS>BOND
   1    1    2 ar
   2    1    6 ar
   3    2    3 ar
   4    2   12 1
   5    3    4 ar
   6    4    5 ar
   7    4    7 1
   8    5    6 ar
   9    5   10 1
  10    6   11 1
  11    7    8 1
  12    7   13 1
  13    8    9 1
  14    8   28 1
  15    8   29 1
  16    9   10 am
  17    9   14 2
  18   10   30 1
  19   11   31 1
  20   11   32 1
  21   12   15 1
  22   13   19 1
  23   13   25 1
  24   13   33 1
  25   15   16 1
  26   15   34 1
  27   15   35 1
  28   16   17 1
  29   16   36 1
  30   16   37 1
  31   17   18 1
  32   17   38 1
  33   17   39 1
  34   18   40 1
  35   18   41 1
  36   18   42 1
  37   19   20 ar
  38   19   21 ar
  39   20   24 ar
  40   20   43 1
  41   21   22 ar
  42   21   44 1
  43   22   23 ar
  44   22   45 1
  45   23   24 ar
  46   23   26 1
  47   24   46 1
  48   25   47 1
  49   25   48 1
  50   25   49 1
  51   26   27 3

#	End of record

