#	Name: ASD01208494
#	Creating user name:	WinNT
#	Creation time:	15. 06. 2019 19:09

#	Modifying user name:	WinNT
#	Modification time:	15. 06. 2019 19:09

#	Program:	/corina/corina34_cracker 3.40 0067  02.08.2006

@<TRIPOS>MOLECULE
ASD01208494
  57   60    0    0    0
SMALL
NO_CHARGES


@<TRIPOS>ATOM
   1 C1             1.6837    -2.8557    -6.0623 C.2     
   2 C2             1.2286    -3.1406    -4.6889 C.ar    
   3 C3             2.0459    -2.8236    -3.5996 C.ar    
   4 C4             1.6173    -3.0912    -2.3192 C.ar    
   5 C5             0.3737    -3.6765    -2.1082 C.ar    
   6 C6            -0.4419    -3.9933    -3.1885 C.ar    
   7 C7            -0.0234    -3.7231    -4.4721 C.ar    
   8 O8             2.7703    -2.3447    -6.2485 O.2     
   9 O9             0.8970    -3.1670    -7.1110 O.3     
  10 C10            2.4973    -2.7499    -1.1444 C.3     
  11 O11           -0.0447    -3.9395    -0.8446 O.3     
  12 C12           -1.2481    -4.5502    -0.6851 C.ar    
  13 C13           -2.3573    -3.8073    -0.3053 C.ar    
  14 C14           -3.5884    -4.4256    -0.1415 C.ar    
  15 C15           -3.7154    -5.7881    -0.3561 C.ar    
  16 C16           -2.6029    -6.5391    -0.7381 C.ar    
  17 C17           -1.3673    -5.9120    -0.9073 C.ar    
  18 N18           -1.7231    -8.8391    -1.3437 N.pl3   
  19 C19           -2.7335    -7.9929    -0.9676 C.2     
  20 C20           -3.8811    -8.7214    -0.8405 C.2     
  21 C21           -3.5776   -10.0512    -1.1445 C.2     
  22 C22           -2.2363   -10.1084    -1.4545 C.2     
  23 S23           -2.1610   -12.9366    -1.9742 S.3     
  24 C24           -1.4870   -11.3147    -1.8367 C.2     
  25 N25           -0.2157   -11.3560    -2.1291 N.2     
  26 C26            0.2839   -12.5273    -2.4496 C.2     
  27 C27           -0.5759   -13.5511    -2.4389 C.2     
  28 O28           -4.6712    -3.6935     0.2306 O.3     
  29 C29           -4.4515    -2.3115     0.5202 C.3     
  30 C30           -5.5494    -1.8063     1.4585 C.3     
  31 C31           -4.4821    -1.5067    -0.7806 C.3     
  32 O32           -6.8099    -1.8561     0.7871 O.3     
  33 C33           -7.9091    -1.4031     1.5800 C.3     
  34 H34            3.0122    -2.3696    -3.7626 H       
  35 H35           -1.4071    -4.4478    -3.0204 H       
  36 H36           -0.6597    -3.9651    -5.3106 H       
  37 H37            1.2382    -2.9613    -7.9921 H       
  38 H38            2.2799    -1.7355    -0.8101 H       
  39 H39            2.3051    -3.4496    -0.3310 H       
  40 H40            3.5436    -2.8178    -1.4423 H       
  41 H41           -2.2617    -2.7449    -0.1364 H       
  42 H42           -4.6740    -6.2687    -0.2276 H       
  43 H43           -0.5047    -6.4886    -1.2072 H       
  44 H44           -0.8018    -8.5839    -1.5081 H       
  45 H45           -4.8500    -8.3386    -0.5556 H       
  46 H46           -4.2678   -10.8819    -1.1373 H       
  47 H47            1.3251   -12.6558    -2.7063 H       
  48 H48           -0.3397   -14.5784    -2.6744 H       
  49 H49           -3.4800    -2.1907     0.9995 H       
  50 H50           -5.5861    -2.4362     2.3473 H       
  51 H51           -5.3335    -0.7785     1.7502 H       
  52 H52           -5.4536    -1.6275    -1.2598 H       
  53 H53           -4.3145    -0.4525    -0.5596 H       
  54 H54           -3.6999    -1.8666    -1.4490 H       
  55 H55           -7.7421    -0.3669     1.8742 H       
  56 H56           -8.8289    -1.4722     0.9992 H       
  57 H57           -7.9947    -2.0246     2.4713 H       
@<TRIPOS>BOND
   1    1    2 1
   2    1    8 2
   3    1    9 1
   4    2    3 ar
   5    2    7 ar
   6    3    4 ar
   7    3   34 1
   8    4    5 ar
   9    4   10 1
  10    5    6 ar
  11    5   11 1
  12    6    7 ar
  13    6   35 1
  14    7   36 1
  15    9   37 1
  16   10   38 1
  17   10   39 1
  18   10   40 1
  19   11   12 1
  20   12   13 ar
  21   12   17 ar
  22   13   14 ar
  23   13   41 1
  24   14   15 ar
  25   14   28 1
  26   15   16 ar
  27   15   42 1
  28   16   17 ar
  29   16   19 1
  30   17   43 1
  31   18   19 1
  32   18   22 1
  33   18   44 1
  34   19   20 2
  35   20   21 1
  36   20   45 1
  37   21   22 2
  38   21   46 1
  39   22   24 1
  40   23   24 1
  41   23   27 1
  42   24   25 2
  43   25   26 1
  44   26   27 2
  45   26   47 1
  46   27   48 1
  47   28   29 1
  48   29   30 1
  49   29   31 1
  50   29   49 1
  51   30   32 1
  52   30   50 1
  53   30   51 1
  54   31   52 1
  55   31   53 1
  56   31   54 1
  57   32   33 1
  58   33   55 1
  59   33   56 1
  60   33   57 1

#	End of record

