#	Name: ASD06020071
#	Creating user name:	WinNT
#	Creation time:	15. 06. 2019 21:04

#	Modifying user name:	WinNT
#	Modification time:	15. 06. 2019 21:04

#	Program:	/corina/corina34_cracker 3.40 0067  02.08.2006

@<TRIPOS>MOLECULE
ASD06020071
  36   39    0    0    0
SMALL
NO_CHARGES


@<TRIPOS>ATOM
   1 C1            -0.0167     1.3951     0.0029 C.ar    
   2 C2             0.0030    -0.0035     0.0025 C.ar    
   3 C3             1.2300    -0.6765    -0.0198 C.ar    
   4 C4             2.4026     0.1208    -0.0410 C.ar    
   5 C5             2.2923     1.4755    -0.0390 C.ar    
   6 N6             1.1143     2.0789    -0.0177 N.ar    
   7 S7            -1.2859    -1.2019     0.0259 S.3     
   8 C8            -0.0954    -2.4967     0.0042 C.2     
   9 N9             1.1001    -2.0039    -0.0174 N.2     
  10 N10           -1.2339     2.0704     0.0191 N.pl3   
  11 C11           -0.1543     5.4476     0.4363 C.ar    
  12 N12           -0.1344     4.1344     0.3296 N.ar    
  13 C13           -1.2586     3.4526     0.1314 C.ar    
  14 C14           -2.4646     4.1504     0.0378 C.ar    
  15 C15           -2.4366     5.5261     0.1558 C.ar    
  16 N16           -1.2755     6.1349     0.3524 N.ar    
  17 C17           -3.7106     6.3256     0.0620 C.3     
  18 C18           -0.4153    -3.9398     0.0108 C.ar    
  19 C19            0.6116    -4.8862    -0.0079 C.ar    
  20 C20            0.3053    -6.2328    -0.0012 C.ar    
  21 C21           -1.0149    -6.6450     0.0235 C.ar    
  22 C22           -2.0372    -5.7134     0.0422 C.ar    
  23 C23           -1.7458    -4.3634     0.0415 C.ar    
  24 Cl24          -3.0302    -3.1959     0.0717 Cl      
  25 Cl25           2.2691    -4.3710    -0.0402 Cl      
  26 H26            3.3767    -0.3453    -0.0583 H       
  27 H27            3.1900     2.0758    -0.0549 H       
  28 H28           -2.0647     1.5743    -0.0481 H       
  29 H29            0.7736     5.9750     0.6015 H       
  30 H30           -3.3957     3.6275    -0.1232 H       
  31 H31           -4.1455     6.4339     1.0556 H       
  32 H32           -3.4915     7.3115    -0.3481 H       
  33 H33           -4.4162     5.8098    -0.5893 H       
  34 H34            1.0984    -6.9657    -0.0157 H       
  35 H35           -1.2486    -7.6994     0.0279 H       
  36 H36           -3.0657    -6.0424     0.0611 H       
@<TRIPOS>BOND
   1    1    2 ar
   2    1    6 ar
   3    1   10 1
   4    2    3 ar
   5    2    7 1
   6    3    4 ar
   7    3    9 1
   8    4    5 ar
   9    4   26 1
  10    5    6 ar
  11    5   27 1
  12    7    8 1
  13    8    9 2
  14    8   18 1
  15   10   13 1
  16   10   28 1
  17   11   12 ar
  18   11   16 ar
  19   11   29 1
  20   12   13 ar
  21   13   14 ar
  22   14   15 ar
  23   14   30 1
  24   15   16 ar
  25   15   17 1
  26   17   31 1
  27   17   32 1
  28   17   33 1
  29   18   19 ar
  30   18   23 ar
  31   19   20 ar
  32   19   25 1
  33   20   21 ar
  34   20   34 1
  35   21   22 ar
  36   21   35 1
  37   22   23 ar
  38   22   36 1
  39   23   24 1

#	End of record

