#	Name: ASD01811994
#	Creating user name:	WinNT
#	Creation time:	15. 06. 2019 19:27

#	Modifying user name:	WinNT
#	Modification time:	15. 06. 2019 19:27

#	Program:	/corina/corina34_cracker 3.40 0067  02.08.2006

@<TRIPOS>MOLECULE
ASD01811994
  42   44    0    0    0
SMALL
NO_CHARGES


@<TRIPOS>ATOM
   1 C1             0.2540     1.0770     0.6879 C.ar    
   2 C2             0.2374    -0.2974     0.5104 C.ar    
   3 C3             1.4012    -0.9664     0.2042 C.ar    
   4 C4             2.6104    -0.2678     0.0698 C.ar    
   5 C5             2.6241     1.1143     0.2501 C.ar    
   6 C6             1.4340     1.7761     0.5592 C.ar    
   7 C7             3.8143    -1.0459    -0.2613 C.2     
   8 C8             4.6570     0.6081    -1.7884 C.3     
   9 C9             4.7177     1.7223    -0.7798 C.2     
  10 N10            3.7707     1.8847     0.1414 N.am    
  11 S11            5.9523     2.7379    -0.8147 S.2     
  12 C12            3.9864    -2.3585     0.4038 C.ar    
  13 C13            4.7814    -3.3421    -0.1836 C.ar    
  14 C14            4.9382    -4.5626     0.4411 C.ar    
  15 C15            4.3083    -4.8114     1.6472 C.ar    
  16 C16            3.5178    -3.8396     2.2348 C.ar    
  17 C17            3.3584    -2.6133     1.6230 C.ar    
  18 Cl18          -1.2510    -1.1757     0.6747 Cl      
  19 C19            3.3422     0.6920    -2.5662 C.3     
  20 C20            3.3063     1.9943    -3.3683 C.3     
  21 N21            4.7283    -0.6722    -1.0853 N.2     
  22 C22            3.2379    -0.4985    -3.5217 C.3     
  23 C23            2.8347    -4.1189     3.5487 C.3     
  24 H24           -0.6604     1.6013     0.9232 H       
  25 H25            1.3831    -2.0375     0.0669 H       
  26 H26            1.4386     2.8471     0.6987 H       
  27 H27            5.4959     0.6947    -2.4790 H       
  28 H28            3.8926     2.5984     0.7869 H       
  29 H29            5.2731    -3.1492    -1.1256 H       
  30 H30            5.5537    -5.3252    -0.0129 H       
  31 H31            4.4338    -5.7682     2.1321 H       
  32 H32            2.7412    -1.8555     2.0826 H       
  33 H33            2.5052     0.6720    -1.8682 H       
  34 H34            3.3806     2.8424    -2.6877 H       
  35 H35            4.1433     2.0143    -4.0664 H       
  36 H36            2.3696     2.0541    -3.9225 H       
  37 H37            3.3285    -1.4265    -2.9571 H       
  38 H38            2.2732    -0.4742    -4.0285 H       
  39 H39            4.0378    -0.4428    -4.2601 H       
  40 H40            3.4896    -3.8239     4.3686 H       
  41 H41            1.9059    -3.5512     3.6032 H       
  42 H42            2.6147    -5.1838     3.6246 H       
@<TRIPOS>BOND
   1    1    2 ar
   2    1    6 ar
   3    1   24 1
   4    2    3 ar
   5    2   18 1
   6    3    4 ar
   7    3   25 1
   8    4    5 ar
   9    4    7 1
  10    5    6 ar
  11    5   10 1
  12    6   26 1
  13    7   12 1
  14    7   21 2
  15    8    9 1
  16    8   19 1
  17    8   21 1
  18    8   27 1
  19    9   10 am
  20    9   11 2
  21   10   28 1
  22   12   13 ar
  23   12   17 ar
  24   13   14 ar
  25   13   29 1
  26   14   15 ar
  27   14   30 1
  28   15   16 ar
  29   15   31 1
  30   16   17 ar
  31   16   23 1
  32   17   32 1
  33   19   20 1
  34   19   22 1
  35   19   33 1
  36   20   34 1
  37   20   35 1
  38   20   36 1
  39   22   37 1
  40   22   38 1
  41   22   39 1
  42   23   40 1
  43   23   41 1
  44   23   42 1

#	End of record

