#	Name: ASD01900825
#	Creating user name:	WinNT
#	Creation time:	15. 06. 2019 19:52

#	Modifying user name:	WinNT
#	Modification time:	15. 06. 2019 19:52

#	Program:	/corina/corina34_cracker 3.40 0067  02.08.2006

@<TRIPOS>MOLECULE
ASD01900825
  42   44    0    0    0
SMALL
NO_CHARGES


@<TRIPOS>ATOM
   1 N1             0.5320     1.4663    -0.2454 N.am    
   2 C2             0.7783     0.0901    -0.3193 C.ar    
   3 C3             2.3168    -1.7324    -0.5746 C.ar    
   4 C4             2.0739    -0.3747    -0.5017 C.ar    
   5 C5            -0.2724    -0.8109    -0.2044 C.ar    
   6 C6            -0.0284    -2.1686    -0.2774 C.ar    
   7 C7             1.2670    -2.6320    -0.4657 C.ar    
   8 Cl8           -1.3411    -3.2955    -0.1333 Cl      
   9 C9             1.2405     2.3198    -1.0110 C.2     
  10 C10            0.9130     3.7600    -1.0086 C.ar    
  11 O11            2.1493     1.9041    -1.7035 O.2     
  12 C12            1.5524     4.6490    -1.8905 C.ar    
  13 C13            1.2085     5.9967    -1.8497 C.ar    
  14 N14            0.3016     6.4346    -1.0026 N.ar    
  15 C15           -0.3193     5.6312    -0.1605 C.ar    
  16 C16           -0.0473     4.2790    -0.1327 C.ar    
  17 N17            2.5104     4.1904    -2.7858 N.pl3   
  18 O18            1.5070    -3.9686    -0.5380 O.3     
  19 C19            1.2986    -4.5889    -1.7240 C.ar    
  20 N20            0.7880    -3.8998    -2.7319 N.ar    
  21 N21            1.6155    -5.8677    -1.8482 N.ar    
  22 C22            1.4250    -6.5039    -2.9923 C.ar    
  23 C23            0.8868    -5.8144    -4.0674 C.ar    
  24 C24            0.5717    -4.4746    -3.9036 C.ar    
  25 C25            0.6553    -6.5043    -5.3871 C.3     
  26 C26           -0.7501    -7.1086    -5.4071 C.3     
  27 H27           -0.1513     1.8052     0.3538 H       
  28 H28            3.3247    -2.0936    -0.7166 H       
  29 H29            2.8918     0.3255    -0.5870 H       
  30 H30           -1.2798    -0.4502    -0.0576 H       
  31 H31            1.6916     6.6914    -2.5209 H       
  32 H32           -1.0563     6.0383     0.5159 H       
  33 H33           -0.5622     3.6311     0.5613 H       
  34 H34            2.6680     3.2382    -2.8818 H       
  35 H35            3.0218     4.8225    -3.3148 H       
  36 H36            1.6860    -7.5476    -3.0876 H       
  37 H37            0.1550    -3.9069    -4.7224 H       
  38 H38            0.7514    -5.7811    -6.1969 H       
  39 H39            1.3931    -7.2960    -5.5175 H       
  40 H40           -0.8462    -7.8318    -4.5972 H       
  41 H41           -1.4879    -6.3170    -5.2766 H       
  42 H42           -0.9175    -7.6077    -6.3616 H       
@<TRIPOS>BOND
   1    1    2 1
   2    1    9 am
   3    1   27 1
   4    2    5 ar
   5    2    4 ar
   6    3    4 ar
   7    3    7 ar
   8    3   28 1
   9    4   29 1
  10    5    6 ar
  11    5   30 1
  12    6    7 ar
  13    6    8 1
  14    7   18 1
  15    9   10 1
  16    9   11 2
  17   10   12 ar
  18   10   16 ar
  19   12   13 ar
  20   12   17 1
  21   13   14 ar
  22   13   31 1
  23   14   15 ar
  24   15   16 ar
  25   15   32 1
  26   16   33 1
  27   17   34 1
  28   17   35 1
  29   18   19 1
  30   19   21 ar
  31   19   20 ar
  32   20   24 ar
  33   21   22 ar
  34   22   23 ar
  35   22   36 1
  36   23   24 ar
  37   23   25 1
  38   24   37 1
  39   25   26 1
  40   25   38 1
  41   25   39 1
  42   26   40 1
  43   26   41 1
  44   26   42 1

#	End of record

