#	Name: ASD04882506
#	Creating user name:	WinNT
#	Creation time:	15. 06. 2019 20:54

#	Modifying user name:	WinNT
#	Modification time:	15. 06. 2019 20:54

#	Program:	/corina/corina34_cracker 3.40 0067  02.08.2006

@<TRIPOS>MOLECULE
ASD04882506
  76   80    0    0    0
SMALL
NO_CHARGES


@<TRIPOS>ATOM
   1 C1            -0.0214     1.4011    -0.0091 C.ar    
   2 C2            -0.0115     0.0036    -0.0053 C.ar    
   3 C3            -1.2093    -0.7020    -0.0159 C.ar    
   4 C4            -2.4096    -0.0270    -0.0302 C.ar    
   5 C5            -2.4267     1.3706    -0.0346 C.ar    
   6 C6            -1.2239     2.0824    -0.0182 C.ar    
   7 N7             1.1999    -0.6830     0.0088 N.3     
   8 C8             1.3078    -1.5363     1.2004 C.3     
   9 C9             1.3717    -1.4730    -1.2184 C.3     
  10 C10            2.7456    -2.1472    -1.1998 C.3     
  11 N11            2.8536    -3.0005    -0.0082 N.3     
  12 C12            2.6817    -2.2105     1.2190 C.3     
  13 C13           -3.7126     2.0935    -0.0510 C.2     
  14 O14           -3.7265     3.3094    -0.0548 O.2     
  15 N15           -4.8720     1.4063    -0.0618 N.am    
  16 N16            1.1866     2.1110     0.0021 N.am    
  17 C17            4.0686    -3.6892     0.0059 C.ar    
  18 C18            1.2297     3.3600     0.5068 C.2     
  19 C19            2.5159     4.0731     0.5999 C.2     
  20 O20            0.2069     3.8985     0.8853 O.2     
  21 C21            2.7446     5.4292     1.1198 C.2     
  22 C22            4.0632     5.6501     1.0065 C.2     
  23 O23            4.6465     4.5658     0.4723 O.3     
  24 C24            3.7441     3.6107     0.2273 C.2     
  25 C25            5.2670    -2.9865     0.0218 C.ar    
  26 C26            4.0814    -5.0780     0.0098 C.ar    
  27 C27            5.2848    -5.7560     0.0237 C.ar    
  28 C28            6.4757    -5.0536     0.0342 C.ar    
  29 C29            6.4665    -3.6706     0.0356 C.ar    
  30 C30            2.7839    -5.8444    -0.0007 C.3     
  31 C31           -6.1489     2.1242    -0.0781 C.3     
  32 C32           -7.3003     1.1166    -0.0878 C.3     
  33 C33           -8.6339     1.8663    -0.1048 C.3     
  34 N34           -9.7381     0.9039     0.0066 N.3     
  35 C35          -11.0399     1.5595    -0.2446 C.3     
  36 C36          -12.0756     0.8696     0.6626 C.3     
  37 C37          -11.2752    -0.1869     1.4583 C.3     
  38 C38           -9.8232     0.3482     1.3815 C.3     
  39 O39           -7.2023     0.2925    -1.2510 O.3     
  40 H40           -1.1985    -1.7820    -0.0132 H       
  41 H41           -3.3384    -0.5780    -0.0384 H       
  42 H42           -1.2340     3.1623    -0.0216 H       
  43 H43            1.1898    -0.9266     2.0962 H       
  44 H44            0.5291    -2.2985     1.1736 H       
  45 H45            0.5937    -2.2345    -1.2727 H       
  46 H46            1.3002    -0.8172    -2.0861 H       
  47 H47            2.8637    -2.7569    -2.0955 H       
  48 H48            3.5244    -1.3850    -1.1730 H       
  49 H49            3.4598    -1.4490     1.2733 H       
  50 H50            2.7532    -2.8663     2.0867 H       
  51 H51           -4.8608     0.4364    -0.0587 H       
  52 H52            1.9919     1.7035    -0.3534 H       
  53 H53            2.0028     6.1087     1.5127 H       
  54 H54            4.5737     6.5561     1.2981 H       
  55 H55            3.9510     2.6407    -0.2003 H       
  56 H56            5.2605    -1.9066     0.0230 H       
  57 H57            5.2955    -6.8359     0.0267 H       
  58 H58            7.4152    -5.5861     0.0457 H       
  59 H59            7.3985    -3.1250     0.0439 H       
  60 H60            2.4810    -6.0320    -1.0308 H       
  61 H61            2.9187    -6.7941     0.5171 H       
  62 H62            2.0136    -5.2615     0.5042 H       
  63 H63           -6.2237     2.7528     0.8093 H       
  64 H64           -6.2040     2.7474    -0.9706 H       
  65 H65           -7.2452     0.4934     0.8048 H       
  66 H66           -8.6711     2.5607     0.7346 H       
  67 H67           -8.7275     2.4202    -1.0389 H       
  68 H68          -10.9762     2.6189     0.0035 H       
  69 H69          -11.3219     1.4366    -1.2903 H       
  70 H70          -12.5256     1.5938     1.3417 H       
  71 H71          -12.8445     0.3866     0.0597 H       
  72 H72          -11.6160    -0.2304     2.4928 H       
  73 H73          -11.3512    -1.1656     0.9846 H       
  74 H74           -9.1069    -0.4626     1.5137 H       
  75 H75           -9.6617     1.1304     2.1232 H       
  76 H76           -7.2441     0.7815    -2.0842 H       
@<TRIPOS>BOND
   1    1    2 ar
   2    1   16 1
   3    1    6 ar
   4    2    3 ar
   5    2    7 1
   6    3    4 ar
   7    3   40 1
   8    4    5 ar
   9    4   41 1
  10    5    6 ar
  11    5   13 1
  12    6   42 1
  13    7    8 1
  14    7    9 1
  15    8   12 1
  16    8   43 1
  17    8   44 1
  18    9   10 1
  19    9   45 1
  20    9   46 1
  21   10   11 1
  22   10   47 1
  23   10   48 1
  24   11   12 1
  25   11   17 1
  26   12   49 1
  27   12   50 1
  28   13   14 2
  29   13   15 am
  30   15   31 1
  31   15   51 1
  32   16   18 am
  33   16   52 1
  34   17   26 ar
  35   17   25 ar
  36   18   19 1
  37   18   20 2
  38   19   21 1
  39   19   24 2
  40   21   22 2
  41   21   53 1
  42   22   23 1
  43   22   54 1
  44   23   24 1
  45   24   55 1
  46   25   29 ar
  47   25   56 1
  48   26   27 ar
  49   26   30 1
  50   27   28 ar
  51   27   57 1
  52   28   29 ar
  53   28   58 1
  54   29   59 1
  55   30   60 1
  56   30   61 1
  57   30   62 1
  58   31   32 1
  59   31   63 1
  60   31   64 1
  61   32   33 1
  62   32   39 1
  63   32   65 1
  64   33   34 1
  65   33   66 1
  66   33   67 1
  67   34   35 1
  68   34   38 1
  69   35   36 1
  70   35   68 1
  71   35   69 1
  72   36   37 1
  73   36   70 1
  74   36   71 1
  75   37   38 1
  76   37   72 1
  77   37   73 1
  78   38   74 1
  79   38   75 1
  80   39   76 1

#	End of record

