#	Name: ASD01910033
#	Creating user name:	WinNT
#	Creation time:	15. 06. 2019 19:55

#	Modifying user name:	WinNT
#	Modification time:	15. 06. 2019 19:55

#	Program:	/corina/corina34_cracker 3.40 0067  02.08.2006

@<TRIPOS>MOLECULE
ASD01910033
  45   48    0    0    0
SMALL
NO_CHARGES


@<TRIPOS>ATOM
   1 C1            -0.0167     1.3769     0.0096 C.ar    
   2 C2             0.0021    -0.0041     0.0020 C.ar    
   3 C3             1.2080    -0.6806    -0.0131 C.ar    
   4 C4             2.3987     0.0227    -0.0203 C.ar    
   5 C5             2.3866     1.4038    -0.0127 C.ar    
   6 C6             1.1772     2.0861     0.0020 C.ar    
   7 N7             1.1616     3.4868     0.0092 N.pl3   
   8 C8             0.2443     4.2805    -0.6102 C.2     
   9 C9             0.5821     5.5732    -0.3612 C.2     
  10 C10            1.7425     5.5691     0.4355 C.2     
  11 N11            2.0831     4.3171     0.6597 N.2     
  12 N12           -0.8442     3.8455    -1.3639 N.am    
  13 C13           -1.6779     4.7439    -1.9245 C.2     
  14 C14           -2.8323     4.2826    -2.7238 C.ar    
  15 C15           -3.6977     5.2105    -3.3058 C.ar    
  16 C16           -4.7734     4.7731    -4.0506 C.ar    
  17 C17           -4.9954     3.4181    -4.2214 C.ar    
  18 C18           -4.1415     2.4931    -3.6473 C.ar    
  19 C19           -3.0588     2.9170    -2.9049 C.ar    
  20 C20            2.4555     6.7685     0.9404 C.ar    
  21 C21            3.5989     6.6242     1.7237 C.ar    
  22 C22            4.2580     7.7433     2.1907 C.ar    
  23 C23            3.7856     9.0063     1.8824 C.ar    
  24 C24            2.6511     9.1554     1.1053 C.ar    
  25 C25            1.9874     8.0433     0.6282 C.ar    
  26 O26           -1.4803     5.9338    -1.7726 O.2     
  27 N27           -6.1518     2.9561    -5.0215 N.pl3   
  28 O28           -6.9055     3.7680    -5.5278 O.2     
  29 O29           -6.3498     1.7639    -5.1736 O.2     
  30 H30           -0.9589     1.9047     0.0169 H       
  31 H31           -0.9261    -0.5562     0.0083 H       
  32 H32            1.2201    -1.7605    -0.0190 H       
  33 H33            3.3389    -0.5085    -0.0314 H       
  34 H34            3.3168     1.9525    -0.0183 H       
  35 H35            0.0546     6.4476    -0.7126 H       
  36 H36           -1.0018     2.8961    -1.4850 H       
  37 H37           -3.5258     6.2684    -3.1730 H       
  38 H38           -5.4439     5.4899    -4.5011 H       
  39 H39           -4.3206     1.4369    -3.7842 H       
  40 H40           -2.3930     2.1940    -2.4573 H       
  41 H41            3.9683     5.6386     1.9652 H       
  42 H42            5.1441     7.6326     2.7981 H       
  43 H43            4.3043     9.8793     2.2502 H       
  44 H44            2.2866    10.1438     0.8676 H       
  45 H45            1.1016     8.1608     0.0215 H       
@<TRIPOS>BOND
   1    1    2 ar
   2    1    6 ar
   3    1   30 1
   4    2    3 ar
   5    2   31 1
   6    3    4 ar
   7    3   32 1
   8    4    5 ar
   9    4   33 1
  10    5    6 ar
  11    5   34 1
  12    6    7 1
  13    7    8 1
  14    7   11 1
  15    8    9 2
  16    8   12 1
  17    9   10 1
  18    9   35 1
  19   10   11 2
  20   10   20 1
  21   12   13 am
  22   12   36 1
  23   13   14 1
  24   13   26 2
  25   14   15 ar
  26   14   19 ar
  27   15   16 ar
  28   15   37 1
  29   16   17 ar
  30   16   38 1
  31   17   18 ar
  32   17   27 1
  33   18   19 ar
  34   18   39 1
  35   19   40 1
  36   20   21 ar
  37   20   25 ar
  38   21   22 ar
  39   21   41 1
  40   22   23 ar
  41   22   42 1
  42   23   24 ar
  43   23   43 1
  44   24   25 ar
  45   24   44 1
  46   25   45 1
  47   27   28 2
  48   27   29 2

#	End of record

