#	Name: ASD01900959
#	Creating user name:	WinNT
#	Creation time:	15. 06. 2019 19:52

#	Modifying user name:	WinNT
#	Modification time:	15. 06. 2019 19:52

#	Program:	/corina/corina34_cracker 3.40 0067  02.08.2006

@<TRIPOS>MOLECULE
ASD01900959
  61   65    0    0    0
SMALL
NO_CHARGES


@<TRIPOS>ATOM
   1 C1             0.1313     0.8058    -0.2062 C.ar    
   2 C2             0.1878    -0.5546    -0.4274 C.ar    
   3 C3             1.3767    -1.1563    -0.8093 C.ar    
   4 C4             2.5247    -0.4043    -0.9687 C.ar    
   5 C5             2.4858     0.9622    -0.7484 C.ar    
   6 C6             1.2792     1.5773    -0.3702 C.ar    
   7 N7             3.6183     1.7576    -0.8811 N.pl3   
   8 C8             3.4529     3.1675    -1.2518 C.3     
   9 N9             2.3479     3.7634    -0.4998 N.am    
  10 C10            1.2710     3.0335    -0.1469 C.2     
  11 C11            2.4107     5.1153    -0.1397 C.ar    
  12 C12            1.6843     6.0589    -0.8540 C.ar    
  13 C13            1.7468     7.3918    -0.4983 C.ar    
  14 C14            2.5349     7.7881     0.5723 C.ar    
  15 C15            3.2608     6.8460     1.2863 C.ar    
  16 C16            3.1949     5.5121     0.9355 C.ar    
  17 O17            0.3011     3.5722     0.3513 O.2     
  18 O18            2.5962     9.1008     0.9216 O.3     
  19 C19            3.3382     9.4247     2.0991 C.3     
  20 C20            4.7463     3.9274    -0.9430 C.3     
  21 C21            3.1604     3.2658    -2.7517 C.3     
  22 C22            3.0543     4.7399    -3.1491 C.3     
  23 N23            4.3132     5.4261    -2.8316 N.3     
  24 C24            4.5942     5.3829    -1.3911 C.3     
  25 C25            4.2970     6.8102    -3.3235 C.3     
  26 C26            5.5609     7.5104    -2.8952 C.ar    
  27 C27            5.5404     8.3756    -1.8170 C.ar    
  28 C28            6.6995     9.0177    -1.4242 C.ar    
  29 C29            7.8796     8.7946    -2.1092 C.ar    
  30 C30            7.9002     7.9290    -3.1865 C.ar    
  31 C31            6.7417     7.2832    -3.5767 C.ar    
  32 C32            6.7653     6.3354    -4.7481 C.3     
  33 F33            8.0618     6.2708    -5.2696 F       
  34 F34            6.3686     5.0621    -4.3257 F       
  35 F35            5.8874     6.7934    -5.7363 F       
  36 H36           -0.7982     1.2703     0.0880 H       
  37 H37           -0.7009    -1.1554    -0.3019 H       
  38 H38            1.4059    -2.2218    -0.9832 H       
  39 H39            3.4483    -0.8802    -1.2636 H       
  40 H40            4.5021     1.3871    -0.7310 H       
  41 H41            1.0710     5.7506    -1.6877 H       
  42 H42            1.1822     8.1258    -1.0540 H       
  43 H43            3.8741     7.1554     2.1197 H       
  44 H44            3.7566     4.7782     1.4943 H       
  45 H45            3.3737    10.5075     2.2198 H       
  46 H46            2.8544     8.9780     2.9678 H       
  47 H47            4.3523     9.0358     2.0081 H       
  48 H48            4.9407     3.8948     0.1290 H       
  49 H49            5.5762     3.4663    -1.4786 H       
  50 H50            3.9683     2.7950    -3.3118 H       
  51 H51            2.2203     2.7605    -2.9732 H       
  52 H52            2.8599     4.8145    -4.2190 H       
  53 H53            2.2375     5.2066    -2.5985 H       
  54 H54            3.7716     5.8464    -0.8465 H       
  55 H55            5.5172     5.9247    -1.1847 H       
  56 H56            4.2336     6.8083    -4.4117 H       
  57 H57            3.4343     7.3326    -2.9102 H       
  58 H58            4.6186     8.5499    -1.2819 H       
  59 H59            6.6834     9.6942    -0.5824 H       
  60 H60            8.7852     9.2969    -1.8027 H       
  61 H61            8.8220     7.7549    -3.7218 H       
@<TRIPOS>BOND
   1    1    2 ar
   2    1    6 ar
   3    1   36 1
   4    2    3 ar
   5    2   37 1
   6    3    4 ar
   7    3   38 1
   8    4    5 ar
   9    4   39 1
  10    5    7 1
  11    5    6 ar
  12    6   10 1
  13    7    8 1
  14    7   40 1
  15    8    9 1
  16    8   21 1
  17    8   20 1
  18    9   10 am
  19    9   11 1
  20   10   17 2
  21   11   12 ar
  22   11   16 ar
  23   12   13 ar
  24   12   41 1
  25   13   14 ar
  26   13   42 1
  27   14   15 ar
  28   14   18 1
  29   15   16 ar
  30   15   43 1
  31   16   44 1
  32   18   19 1
  33   19   45 1
  34   19   46 1
  35   19   47 1
  36   20   24 1
  37   20   48 1
  38   20   49 1
  39   21   22 1
  40   21   50 1
  41   21   51 1
  42   22   23 1
  43   22   52 1
  44   22   53 1
  45   23   24 1
  46   23   25 1
  47   24   54 1
  48   24   55 1
  49   25   26 1
  50   25   56 1
  51   25   57 1
  52   26   27 ar
  53   26   31 ar
  54   27   28 ar
  55   27   58 1
  56   28   29 ar
  57   28   59 1
  58   29   30 ar
  59   29   60 1
  60   30   31 ar
  61   30   61 1
  62   31   32 1
  63   32   33 1
  64   32   34 1
  65   32   35 1

#	End of record

