#	Name: ASD06190002
#	Creating user name:	WinNT
#	Creation time:	15. 06. 2019 21:05

#	Modifying user name:	WinNT
#	Modification time:	15. 06. 2019 21:05

#	Program:	/corina/corina34_cracker 3.40 0067  02.08.2006

@<TRIPOS>MOLECULE
ASD06190002
  54   56    0    0    0
SMALL
NO_CHARGES


@<TRIPOS>ATOM
   1 C1             4.3778     9.6017     0.0247 C.ar    
   2 C2             3.6059    10.2557     0.9761 C.ar    
   3 C3             3.5558    11.6358     0.9926 C.ar    
   4 C4             4.2729    12.3663     0.0629 C.ar    
   5 C5             5.0421    11.7181    -0.8860 C.ar    
   6 C6             5.1018    10.3384    -0.9037 C.ar    
   7 N7             4.4307     8.2039     0.0052 N.am    
   8 C8             3.2971     7.4849     0.1258 C.2     
   9 N9             3.3369     6.1416     0.0234 N.am    
  10 N10            4.5567     5.4927    -0.2084 N.am    
  11 C11            4.5966     4.1494    -0.3109 C.2     
  12 S12            1.8065     8.2780     0.4092 S.2     
  13 C13            5.8563     3.4754    -0.6635 C.2     
  14 O14            3.5913     3.4942    -0.1118 O.2     
  15 N15            6.0322     2.1436    -0.9111 N.pl3   
  16 N16            7.2656     1.9155    -1.1876 N.2     
  17 C17            7.9658     3.0203    -1.1469 C.2     
  18 C18            7.0992     4.0648    -0.8167 C.2     
  19 C19            9.4436     3.1446    -1.4145 C.3     
  20 C20           10.1872     3.3371    -0.0913 C.3     
  21 C21            9.9461     1.8733    -2.1016 C.3     
  22 C22            9.6980     4.3496    -2.3224 C.3     
  23 C23            4.9754     1.1299    -0.8674 C.3     
  24 C24            4.4250     0.9180    -2.2542 C.ar    
  25 C25            5.0918     0.0955    -3.1446 C.ar    
  26 C26            3.2510     1.5409    -2.6345 C.ar    
  27 C27            2.7454     1.3466    -3.9059 C.ar    
  28 C28            3.4142     0.5283    -4.7992 C.ar    
  29 C29            4.5861    -0.0994    -4.4176 C.ar    
  30 Cl30           2.7787     0.2840    -6.3961 Cl      
  31 Cl31           6.5629    -0.6915    -2.6649 Cl      
  32 H32            3.0451     9.6857     1.7020 H       
  33 H33            2.9557    12.1450     1.7322 H       
  34 H34            4.2318    13.4454     0.0777 H       
  35 H35            5.6007    12.2916    -1.6109 H       
  36 H36            5.7027     9.8328    -1.6451 H       
  37 H37            5.2832     7.7521    -0.0951 H       
  38 H38            2.5211     5.6242     0.1103 H       
  39 H39            5.3726     6.0101    -0.2953 H       
  40 H40            7.3475     5.1093    -0.6992 H       
  41 H41           10.0060     2.4786     0.5555 H       
  42 H42           11.2561     3.4269    -0.2848 H       
  43 H43            9.8292     4.2428     0.3983 H       
  44 H44            9.4164     1.7361    -3.0443 H       
  45 H45           11.0150     1.9631    -2.2952 H       
  46 H46            9.7649     1.0148    -1.4548 H       
  47 H47            9.3400     5.2553    -1.8329 H       
  48 H48           10.7669     4.4394    -2.5160 H       
  49 H49            9.1683     4.2124    -3.2651 H       
  50 H50            5.3863     0.1926    -0.4924 H       
  51 H51            4.1763     1.4664    -0.2069 H       
  52 H52            2.7284     2.1794    -1.9375 H       
  53 H53            1.8279     1.8333    -4.2023 H       
  54 H54            5.1085    -0.7381    -5.1144 H       
@<TRIPOS>BOND
   1    1    2 ar
   2    1    7 1
   3    1    6 ar
   4    2    3 ar
   5    2   32 1
   6    3    4 ar
   7    3   33 1
   8    4    5 ar
   9    4   34 1
  10    5    6 ar
  11    5   35 1
  12    6   36 1
  13    7    8 am
  14    7   37 1
  15    8    9 am
  16    8   12 2
  17    9   10 1
  18    9   38 1
  19   10   11 am
  20   10   39 1
  21   11   13 1
  22   11   14 2
  23   13   15 1
  24   13   18 2
  25   15   16 1
  26   15   23 1
  27   16   17 2
  28   17   18 1
  29   17   19 1
  30   18   40 1
  31   19   20 1
  32   19   21 1
  33   19   22 1
  34   20   41 1
  35   20   42 1
  36   20   43 1
  37   21   44 1
  38   21   45 1
  39   21   46 1
  40   22   47 1
  41   22   48 1
  42   22   49 1
  43   23   24 1
  44   23   50 1
  45   23   51 1
  46   24   25 ar
  47   24   26 ar
  48   25   31 1
  49   25   29 ar
  50   26   27 ar
  51   26   52 1
  52   27   28 ar
  53   27   53 1
  54   28   29 ar
  55   28   30 1
  56   29   54 1

#	End of record

