#	Name: ASD01870050
#	Creating user name:	WinNT
#	Creation time:	15. 06. 2019 19:38

#	Modifying user name:	WinNT
#	Modification time:	15. 06. 2019 19:38

#	Program:	/corina/corina34_cracker 3.40 0067  02.08.2006

@<TRIPOS>MOLECULE
ASD01870050
  43   46    0    0    0
SMALL
NO_CHARGES


@<TRIPOS>ATOM
   1 C1            -0.0167     1.3774     0.0096 C.ar    
   2 C2             0.0021    -0.0041     0.0020 C.ar    
   3 N3             1.1354    -0.6695    -0.0124 N.ar    
   4 C4             2.3261    -0.0578    -0.0204 C.ar    
   5 C5             2.3957     1.3311    -0.0137 C.ar    
   6 C6             1.1851     2.0719     0.0019 C.ar    
   7 S7             3.9418    -0.7499    -0.0395 S.3     
   8 C8             4.7120     0.8266    -0.0385 C.2     
   9 C9             3.7719     1.8347    -0.0242 C.2     
  10 C10            6.0889     1.1773    -0.0506 C.2     
  11 N11            6.4256     2.4824    -0.0475 N.am    
  12 C12            5.4572     3.4333    -0.0332 C.2     
  13 N13            4.1962     3.1281    -0.0221 N.2     
  14 N14            1.2027     3.4594     0.0092 N.3     
  15 C15            7.8371     2.8747    -0.0592 C.3     
  16 O16            6.9500     0.3135    -0.0630 O.2     
  17 C17            0.5124     4.0008    -1.1691 C.3     
  18 C18            0.6190     3.9867     1.2498 C.3     
  19 C19            8.1233     3.7121    -1.3072 C.3     
  20 C20            9.5974     4.1218    -1.3195 C.3     
  21 C21            9.9077     4.9472    -0.0692 C.3     
  22 C22            9.6215     4.1098     1.1789 C.3     
  23 C23            8.1474     3.7001     1.1911 C.3     
  24 H24           -0.9557     1.9109     0.0170 H       
  25 H25           -0.9315    -0.5470     0.0084 H       
  26 H26            5.7447     4.4743    -0.0305 H       
  27 H27            8.4622     1.9818    -0.0695 H       
  28 H28           -0.5244     3.6643    -1.1692 H       
  29 H29            0.5409     5.0900    -1.1383 H       
  30 H30            1.0084     3.6497    -2.0740 H       
  31 H31            1.1925     3.6255     2.1034 H       
  32 H32            0.6453     5.0762     1.2293 H       
  33 H33           -0.4139     3.6498     1.3373 H       
  34 H34            7.9023     3.1241    -2.1980 H       
  35 H35            7.4982     4.6050    -1.2969 H       
  36 H36           10.2226     3.2290    -1.3298 H       
  37 H37            9.8014     4.7184    -2.2086 H       
  38 H38           10.9579     5.2391    -0.0779 H       
  39 H39            9.2826     5.8401    -0.0588 H       
  40 H40           10.2466     3.2169     1.1686 H       
  41 H41            9.8425     4.6978     2.0696 H       
  42 H42            7.5222     4.5929     1.2014 H       
  43 H43            7.9434     3.1035     2.0802 H       
@<TRIPOS>BOND
   1    1    2 ar
   2    1    6 ar
   3    1   24 1
   4    2    3 ar
   5    2   25 1
   6    3    4 ar
   7    4    5 ar
   8    4    7 1
   9    5    6 ar
  10    5    9 1
  11    6   14 1
  12    7    8 1
  13    8    9 2
  14    8   10 1
  15    9   13 1
  16   10   11 am
  17   10   16 2
  18   11   12 1
  19   11   15 1
  20   12   13 2
  21   12   26 1
  22   14   17 1
  23   14   18 1
  24   15   19 1
  25   15   23 1
  26   15   27 1
  27   17   28 1
  28   17   29 1
  29   17   30 1
  30   18   31 1
  31   18   32 1
  32   18   33 1
  33   19   20 1
  34   19   34 1
  35   19   35 1
  36   20   21 1
  37   20   36 1
  38   20   37 1
  39   21   22 1
  40   21   38 1
  41   21   39 1
  42   22   23 1
  43   22   40 1
  44   22   41 1
  45   23   42 1
  46   23   43 1

#	End of record

