#	Name: ASD01230137
#	Creating user name:	WinNT
#	Creation time:	15. 06. 2019 19:11

#	Modifying user name:	WinNT
#	Modification time:	15. 06. 2019 19:11

#	Program:	/corina/corina34_cracker 3.40 0067  02.08.2006

@<TRIPOS>MOLECULE
ASD01230137
  65   68    0    0    0
SMALL
NO_CHARGES


@<TRIPOS>ATOM
   1 C1            -3.6647     4.9712     2.1111 C.2     
   2 C2            -3.6371     3.6486     2.8330 C.3     
   3 O3            -2.8347     5.8130     2.3606 O.2     
   4 O4            -4.6080     5.2118     1.1870 O.3     
   5 O5            -6.5248     6.7625    -0.7873 O.3     
   6 C6            -5.1313     6.4019    -0.9050 C.3     
   7 C7            -4.5737     6.5071     0.5318 C.3     
   8 C8            -5.5314     7.4949     1.2348 C.3     
   9 C9            -6.5544     7.8697     0.1395 C.3     
  10 C10           -4.9938     4.9699    -1.4261 C.3     
  11 O11           -5.4755     4.9037    -2.7699 O.3     
  12 P12           -5.4814     3.5449    -3.6333 P.3     
  13 O13           -6.1049     2.4605    -2.8422 O.2     
  14 O14           -6.3222     3.7730    -4.9872 O.3     
  15 C15           -6.6882     2.6225    -5.6111 C.ar    
  16 C16           -7.6416     1.7939    -5.0373 C.ar    
  17 C17           -8.0119     0.6249    -5.6735 C.ar    
  18 C18           -7.4332     0.2804    -6.8810 C.ar    
  19 C19           -6.4825     1.1043    -7.4547 C.ar    
  20 C20           -6.1133     2.2774    -6.8256 C.ar    
  21 N21           -3.8998     3.1190    -4.0201 N.3     
  22 O22           -1.9908     0.5437    -4.9726 O.3     
  23 C23           -3.0692     0.8250    -4.2275 C.2     
  24 C24           -3.8706     1.9295    -4.8816 C.3     
  25 C25           -3.1205     2.2364    -6.1969 C.3     
  26 C26           -2.1985     1.0041    -6.3406 C.3     
  27 O27           -3.3584     0.2781    -3.1897 O.2     
  28 F28           -6.1722     6.8737     2.3121 F       
  29 F29           -4.8358     8.6300     1.6649 F       
  30 C30           -8.4832     6.9594     1.3101 C.2     
  31 N31           -9.6989     7.0635     1.8454 N.2     
  32 C32          -10.3586     8.2124     1.8090 C.2     
  33 C33           -9.7684     9.3356     1.1978 C.2     
  34 C34           -8.5313     9.2150     0.6575 C.2     
  35 N35           -7.8921     8.0140     0.7191 N.am    
  36 O36           -7.8945     5.8923     1.3610 O.2     
  37 C37          -12.1813     7.2305     2.9510 C.2     
  38 C38          -13.5559     7.3344     3.5599 C.3     
  39 O39          -11.5806     6.1778     2.9862 O.2     
  40 N40          -11.6196     8.3077     2.3675 N.am    
  41 H41           -2.8044     3.6359     3.5363 H       
  42 H42           -4.5726     3.5110     3.3751 H       
  43 H43           -3.5142     2.8424     2.1098 H       
  44 H44           -4.6136     7.0980    -1.5649 H       
  45 H45           -3.5582     6.9031     0.5193 H       
  46 H46           -6.2549     8.7909    -0.3601 H       
  47 H47           -3.9453     4.6732    -1.4009 H       
  48 H48           -5.5770     4.2970    -0.7975 H       
  49 H49           -8.0936     2.0624    -4.0939 H       
  50 H50           -8.7538    -0.0206    -5.2270 H       
  51 H51           -7.7241    -0.6339    -7.3768 H       
  52 H52           -6.0315     0.8326    -8.3977 H       
  53 H53           -5.3742     2.9231    -7.2765 H       
  54 H54           -3.4130     3.8902    -4.4518 H       
  55 H55           -4.8840     1.5885    -5.0935 H       
  56 H56           -3.8154     2.3013    -7.0341 H       
  57 H57           -2.5346     3.1511    -6.1054 H       
  58 H58           -1.2495     1.2896    -6.7945 H       
  59 H59           -2.6871     0.2302    -6.9327 H       
  60 H60          -10.2936    10.2785     1.1599 H       
  61 H61           -8.0578    10.0618     0.1830 H       
  62 H62          -13.8407     6.3701     3.9808 H       
  63 H63          -13.5481     8.0870     4.3484 H       
  64 H64          -14.2732     7.6212     2.7909 H       
  65 H65          -12.1001     9.1499     2.3393 H       
@<TRIPOS>BOND
   1    1    2 1
   2    1    3 2
   3    1    4 1
   4    2   41 1
   5    2   42 1
   6    2   43 1
   7    4    7 1
   8    5    6 1
   9    5    9 1
  10    6    7 1
  11    6   10 1
  12    6   44 1
  13    7    8 1
  14    7   45 1
  15    8    9 1
  16    8   28 1
  17    8   29 1
  18    9   35 1
  19    9   46 1
  20   10   11 1
  21   10   47 1
  22   10   48 1
  23   11   12 1
  24   12   13 2
  25   12   14 1
  26   12   21 1
  27   14   15 1
  28   15   16 ar
  29   15   20 ar
  30   16   17 ar
  31   16   49 1
  32   17   18 ar
  33   17   50 1
  34   18   19 ar
  35   18   51 1
  36   19   20 ar
  37   19   52 1
  38   20   53 1
  39   21   24 1
  40   21   54 1
  41   22   23 1
  42   22   26 1
  43   23   24 1
  44   23   27 2
  45   24   25 1
  46   24   55 1
  47   25   26 1
  48   25   56 1
  49   25   57 1
  50   26   58 1
  51   26   59 1
  52   30   31 1
  53   30   35 am
  54   30   36 2
  55   31   32 2
  56   32   33 1
  57   32   40 1
  58   33   34 2
  59   33   60 1
  60   34   35 1
  61   34   61 1
  62   37   38 1
  63   37   39 2
  64   37   40 am
  65   38   62 1
  66   38   63 1
  67   38   64 1
  68   40   65 1

#	End of record

