#	Name: ASD02590002
#	Creating user name:	WinNT
#	Creation time:	15. 06. 2019 20:25

#	Modifying user name:	WinNT
#	Modification time:	15. 06. 2019 20:25

#	Program:	/corina/corina34_cracker 3.40 0067  02.08.2006

@<TRIPOS>MOLECULE
ASD02590002
  28   30    0    0    0
SMALL
NO_CHARGES


@<TRIPOS>ATOM
   1 C1            -0.0167     1.3830     0.0096 C.ar    
   2 C2             0.0021    -0.0041     0.0020 C.ar    
   3 C3             1.1990    -0.6883    -0.0131 C.ar    
   4 C4             2.3982     0.0120    -0.0209 C.ar    
   5 C5             2.3901     1.4176    -0.0133 C.ar    
   6 C6             1.1636     2.0995     0.0022 C.ar    
   7 N7             3.7259    -0.3652    -0.0364 N.pl3   
   8 C8             4.4728     0.7830    -0.0378 C.2     
   9 N9             3.6813     1.8261    -0.0242 N.2     
  10 C10            5.9515     0.8366    -0.0521 C.ar    
  11 C11            6.5988     2.0714    -0.0521 C.ar    
  12 C12            7.9830     2.1051    -0.0656 C.ar    
  13 C13            8.6746     0.9028    -0.0786 C.ar    
  14 C14            7.9679    -0.2872    -0.0778 C.ar    
  15 N15            6.6516    -0.2919    -0.0594 N.ar    
  16 O16            1.1377     3.4581     0.0093 O.3     
  17 C17           -0.1476     4.0824     0.0251 C.3     
  18 H18           -0.9615     1.9063     0.0170 H       
  19 H19           -0.9283    -0.5524     0.0084 H       
  20 H20            1.2039    -1.7683    -0.0186 H       
  21 H21            4.0663    -1.2734    -0.0444 H       
  22 H22            6.0287     2.9886    -0.0421 H       
  23 H23            8.5123     3.0465    -0.0663 H       
  24 H24            9.7545     0.8953    -0.0896 H       
  25 H25            8.5037    -1.2249    -0.0879 H       
  26 H26           -0.0254     5.1655     0.0294 H       
  27 H27           -0.7076     3.7834    -0.8609 H       
  28 H28           -0.6902     3.7744     0.9189 H       
@<TRIPOS>BOND
   1    1    2 ar
   2    1    6 ar
   3    1   18 1
   4    2    3 ar
   5    2   19 1
   6    3    4 ar
   7    3   20 1
   8    4    5 ar
   9    4    7 1
  10    5    6 ar
  11    5    9 1
  12    6   16 1
  13    7    8 1
  14    7   21 1
  15    8    9 2
  16    8   10 1
  17   10   11 ar
  18   10   15 ar
  19   11   12 ar
  20   11   22 1
  21   12   13 ar
  22   12   23 1
  23   13   14 ar
  24   13   24 1
  25   14   15 ar
  26   14   25 1
  27   16   17 1
  28   17   26 1
  29   17   27 1
  30   17   28 1

#	End of record

