#	Name: ASD00431098
#	Creating user name:	WinNT
#	Creation time:	15. 06. 2019 18:35

#	Modifying user name:	WinNT
#	Modification time:	15. 06. 2019 18:35

#	Program:	/corina/corina34_cracker 3.40 0067  02.08.2006

@<TRIPOS>MOLECULE
ASD00431098
  32   34    0    0    0
SMALL
NO_CHARGES


@<TRIPOS>ATOM
   1 C1             0.3695     1.0748     0.2031 C.2     
   2 N2             0.1040    -0.1927    -0.1609 N.am    
   3 C3             1.1880    -0.7780    -0.7014 C.2     
   4 C4             2.2990     0.1969    -0.7014 C.ar    
   5 C5             3.6190     0.1601    -1.1213 C.ar    
   6 C6             4.4189     1.2823    -0.9730 C.ar    
   7 C7             3.9089     2.4368    -0.4094 C.ar    
   8 C8             2.5904     2.4884     0.0153 C.ar    
   9 C9             1.7790     1.3742    -0.1267 C.ar    
  10 O10           -0.4184     1.8459     0.7125 O.2     
  11 O11            1.2445    -1.9171    -1.1189 O.2     
  12 C12           -1.1944    -0.8494     0.0093 C.3     
  13 C13           -1.5506    -1.6139    -1.2672 C.3     
  14 C14           -1.1230    -1.8110     1.1674 C.ar    
  15 C15           -2.2331    -2.0154     1.9655 C.ar    
  16 C16           -2.1675    -2.8983     3.0280 C.ar    
  17 C17           -0.9909    -3.5767     3.2916 C.ar    
  18 C18            0.1183    -3.3718     2.4932 C.ar    
  19 C19            0.0507    -2.4929     1.4279 C.ar    
  20 Br20          -3.6855    -3.1778     4.1205 Br      
  21 H21            4.0229    -0.7394    -1.5621 H       
  22 H22            5.4479     1.2544    -1.2997 H       
  23 H23            4.5422     3.3047    -0.2988 H       
  24 H24            2.1974     3.3930     0.4553 H       
  25 H25           -1.9585    -0.0977     0.2078 H       
  26 H26           -0.7866    -2.3655    -1.4657 H       
  27 H27           -2.5167    -2.1024    -1.1405 H       
  28 H28           -1.6023    -0.9183    -2.1048 H       
  29 H29           -3.1513    -1.4854     1.7596 H       
  30 H30           -0.9392    -4.2660     4.1214 H       
  31 H31            1.0369    -3.9010     2.6991 H       
  32 H32            0.9165    -2.3361     0.8017 H       
@<TRIPOS>BOND
   1    1    2 am
   2    1    9 1
   3    1   10 2
   4    2    3 am
   5    2   12 1
   6    3    4 1
   7    3   11 2
   8    4    5 ar
   9    4    9 ar
  10    5    6 ar
  11    5   21 1
  12    6    7 ar
  13    6   22 1
  14    7    8 ar
  15    7   23 1
  16    8    9 ar
  17    8   24 1
  18   12   13 1
  19   12   14 1
  20   12   25 1
  21   13   26 1
  22   13   27 1
  23   13   28 1
  24   14   15 ar
  25   14   19 ar
  26   15   16 ar
  27   15   29 1
  28   16   17 ar
  29   16   20 1
  30   17   18 ar
  31   17   30 1
  32   18   19 ar
  33   18   31 1
  34   19   32 1

#	End of record

