#	Name: ASD01912914
#	Creating user name:	WinNT
#	Creation time:	15. 06. 2019 20:00

#	Modifying user name:	WinNT
#	Modification time:	15. 06. 2019 20:00

#	Program:	/corina/corina34_cracker 3.40 0067  02.08.2006

@<TRIPOS>MOLECULE
ASD01912914
  43   47    0    0    0
SMALL
NO_CHARGES


@<TRIPOS>ATOM
   1 C1            -0.1038     1.1807     0.6599 C.2     
   2 N2             0.0088     0.0103    -0.0454 N.pl3   
   3 C3            -1.1057    -0.4863    -0.7046 C.2     
   4 C4            -2.2701     0.1484    -0.6643 C.2     
   5 N5            -2.4358     1.3307     0.0320 N.am    
   6 C6            -1.3940     1.8707     0.7032 C.2     
   7 C7             1.1392     1.4376     1.2074 C.2     
   8 C8             1.9474     0.3815     0.7897 C.2     
   9 N9             1.2160    -0.4224     0.0548 N.2     
  10 O10           -1.5236     2.9116     1.3220 O.2     
  11 C11           -3.6823     1.9655     0.0464 C.ar    
  12 C12            3.4052     0.1960     1.1233 C.3     
  13 O13            3.8475     1.2786     1.9445 O.3     
  14 C14            5.1484     1.2636     2.3373 C.ar    
  15 C15            5.6450     2.2837     3.1357 C.ar    
  16 C16            6.9677     2.2662     3.5337 C.ar    
  17 C17            7.7966     1.2331     3.1369 C.ar    
  18 C18            7.3042     0.2154     2.3408 C.ar    
  19 C19            5.9807     0.2252     1.9453 C.ar    
  20 C20           -3.9873     2.8930    -0.9273 C.ar    
  21 C21           -5.2380     3.5246    -0.9059 C.ar    
  22 C22           -6.1709     3.2023     0.1142 C.ar    
  23 C23           -5.8276     2.2540     1.0893 C.ar    
  24 C24           -4.6096     1.6489     1.0457 C.ar    
  25 C25           -5.6089     4.4796    -1.8703 C.ar    
  26 N26           -6.8035     5.0283    -1.7803 N.ar    
  27 C27           -7.6472     4.7008    -0.8122 C.ar    
  28 N28           -7.3595     3.8189     0.1144 N.ar    
  29 H29           -1.0241    -1.4077    -1.2621 H       
  30 H30           -3.1139    -0.2712    -1.1920 H       
  31 H31            1.4232     2.2765     1.8255 H       
  32 H32            3.5387    -0.7441     1.6586 H       
  33 H33            3.9889     0.1760     0.2030 H       
  34 H34            4.9980     3.0911     3.4456 H       
  35 H35            7.3549     3.0603     4.1549 H       
  36 H36            8.8304     1.2211     3.4491 H       
  37 H37            7.9538    -0.5901     2.0317 H       
  38 H38            5.5965    -0.5700     1.3235 H       
  39 H39           -3.2694     3.1305    -1.6985 H       
  40 H40           -6.5298     2.0017     1.8701 H       
  41 H41           -4.3512     0.9194     1.7990 H       
  42 H42           -4.9312     4.7563    -2.6645 H       
  43 H43           -8.6141     5.1813    -0.7854 H       
@<TRIPOS>BOND
   1    1    2 1
   2    1    7 2
   3    1    6 1
   4    2    3 1
   5    2    9 1
   6    3    4 2
   7    3   29 1
   8    4    5 1
   9    4   30 1
  10    5    6 am
  11    5   11 1
  12    6   10 2
  13    7    8 1
  14    7   31 1
  15    8    9 2
  16    8   12 1
  17   11   20 ar
  18   11   24 ar
  19   12   13 1
  20   12   32 1
  21   12   33 1
  22   13   14 1
  23   14   15 ar
  24   14   19 ar
  25   15   16 ar
  26   15   34 1
  27   16   17 ar
  28   16   35 1
  29   17   18 ar
  30   17   36 1
  31   18   19 ar
  32   18   37 1
  33   19   38 1
  34   20   21 ar
  35   20   39 1
  36   21   22 ar
  37   21   25 ar
  38   22   23 ar
  39   22   28 ar
  40   23   24 ar
  41   23   40 1
  42   24   41 1
  43   25   26 ar
  44   25   42 1
  45   26   27 ar
  46   27   28 ar
  47   27   43 1

#	End of record

