#	Name: ASD02408376
#	Creating user name:	WinNT
#	Creation time:	15. 06. 2019 20:21

#	Modifying user name:	WinNT
#	Modification time:	15. 06. 2019 20:21

#	Program:	/corina/corina34_cracker 3.40 0067  02.08.2006

@<TRIPOS>MOLECULE
ASD02408376
  25   26    0    0    0
SMALL
NO_CHARGES


@<TRIPOS>ATOM
   1 C1            -0.0171     1.4102     0.0098 C.2     
   2 C2             0.0021    -0.0041     0.0020 C.2     
   3 C3             1.3085     1.8357    -0.0006 C.2     
   4 N4             2.0817     0.7262    -0.0139 N.pl3   
   5 N5             1.2457    -0.3956    -0.0120 N.2     
   6 C6             3.4828     0.7040    -0.0274 C.ar    
   7 C7             4.1692    -0.2950     0.6500 C.ar    
   8 C8             5.5502    -0.3142     0.6348 C.ar    
   9 C9             6.2491     0.6604    -0.0536 C.ar    
  10 C10            5.5683     1.6565    -0.7292 C.ar    
  11 C11            4.1873     1.6776    -0.7229 C.ar    
  12 N12            1.7508     3.1446     0.0015 N.pl3   
  13 C13            7.7559     0.6370    -0.0673 C.3     
  14 C14           -1.1798     2.2462     0.0201 C.1     
  15 N15           -2.1021     2.9093     0.0282 N.1     
  16 H16           -0.8644    -0.6488     0.0074 H       
  17 H17            3.6239    -1.0560     1.1884 H       
  18 H18            6.0847    -1.0909     1.1615 H       
  19 H19            6.1170     2.4163    -1.2659 H       
  20 H20            3.6561     2.4556    -1.2510 H       
  21 H21            1.1102     3.8729     0.0114 H       
  22 H22            2.7018     3.3352    -0.0068 H       
  23 H23            8.1024     0.0466    -0.9154 H       
  24 H24            8.1342     1.6555    -0.1547 H       
  25 H25            8.1208     0.1921     0.8585 H       
@<TRIPOS>BOND
   1    1    2 1
   2    1    3 2
   3    1   14 1
   4    2    5 2
   5    2   16 1
   6    3    4 1
   7    3   12 1
   8    4    5 1
   9    4    6 1
  10    6    7 ar
  11    6   11 ar
  12    7    8 ar
  13    7   17 1
  14    8    9 ar
  15    8   18 1
  16    9   10 ar
  17    9   13 1
  18   10   11 ar
  19   10   19 1
  20   11   20 1
  21   12   21 1
  22   12   22 1
  23   13   23 1
  24   13   24 1
  25   13   25 1
  26   14   15 3

#	End of record

