#	Name: ASD01028294
#	Creating user name:	WinNT
#	Creation time:	15. 06. 2019 18:56

#	Modifying user name:	WinNT
#	Modification time:	15. 06. 2019 18:56

#	Program:	/corina/corina34_cracker 3.40 0067  02.08.2006

@<TRIPOS>MOLECULE
ASD01028294
  66   70    0    0    0
SMALL
NO_CHARGES


@<TRIPOS>ATOM
   1 C1            -0.0166     1.3719     0.0096 C.ar    
   2 C2             0.0021    -0.0041     0.0020 C.ar    
   3 C3             1.1750     2.1035     0.0021 C.ar    
   4 C4             2.3797     1.4715    -0.0128 C.ar    
   5 C5             2.4326     0.0695    -0.0208 C.ar    
   6 C6             1.2322    -0.6815    -0.0134 C.ar    
   7 C7             3.6676    -0.6170    -0.0367 C.ar    
   8 C8             3.6411    -2.0003    -0.0444 C.ar    
   9 C9             2.4221    -2.6660    -0.0364 C.ar    
  10 N10            1.2804    -2.0188    -0.0211 N.ar    
  11 O11            4.8427     0.0593    -0.0447 O.3     
  12 C12            6.0400    -0.7207    -0.0607 C.3     
  13 C13            7.2364     0.1957    -0.0676 C.2     
  14 N14            7.8801     0.6746     1.0193 N.pl3   
  15 C15            8.9006     1.4612     0.5397 C.2     
  16 N16            8.8266     1.4211    -0.7806 N.2     
  17 N17            7.8431     0.6668    -1.1285 N.2     
  18 N18            7.7018     0.5215     2.3957 N.2     
  19 C19            8.5049     1.1258     3.2432 C.2     
  20 C20            9.5613     1.9397     2.7821 C.2     
  21 C21            9.7604     2.1072     1.4481 C.2     
  22 C22            8.2977     0.9502     4.7018 C.ar    
  23 O23           -1.2065     2.0271     0.0188 O.3     
  24 C24           -1.1606     3.4553     0.0263 C.3     
  25 C25            7.2576     0.1493     5.1687 C.ar    
  26 C26            9.1463     1.5812     5.6095 C.ar    
  27 C27            8.9489     1.4138     6.9661 C.ar    
  28 Cl28          10.0045     2.1987     8.0989 Cl      
  29 C29            7.9100     0.6212     7.4240 C.ar    
  30 C30            7.6987     0.4422     8.9053 C.3     
  31 C31            7.0691    -0.0114     6.5268 C.ar    
  32 N32            6.9973     1.6105     9.4432 N.am    
  33 C33            6.6987     1.6718    10.7561 C.2     
  34 O34            6.0541     2.7456    11.2504 O.3     
  35 O35            7.0112     0.7581    11.4936 O.2     
  36 C36            5.7652     2.7435    12.6734 C.3     
  37 C37            7.0745     2.6521    13.4596 C.3     
  38 C38            5.0349     4.0349    13.0473 C.3     
  39 C39            4.8816     1.5414    13.0126 C.3     
  40 H40           -0.9239    -0.5598     0.0082 H       
  41 H41            1.1387     3.1829     0.0079 H       
  42 H42            3.2932     2.0476    -0.0188 H       
  43 H43            4.5646    -2.5602    -0.0569 H       
  44 H44            2.4134    -3.7460    -0.0425 H       
  45 H45            6.0728    -1.3543     0.8256 H       
  46 H46            6.0552    -1.3447    -0.9543 H       
  47 H47           10.2128     2.4301     3.4902 H       
  48 H48           10.5676     2.7287     1.0895 H       
  49 H49           -0.6312     3.7971     0.9157 H       
  50 H50           -0.6396     3.8068    -0.8642 H       
  51 H51           -2.1761     3.8514     0.0333 H       
  52 H52            6.5996    -0.3448     4.4693 H       
  53 H53            9.9567     2.1995     5.2528 H       
  54 H54            7.1021    -0.4528     9.0818 H       
  55 H55            8.6644     0.3385     9.4002 H       
  56 H56            6.2631    -0.6321     6.8892 H       
  57 H57            6.7479     2.3400     8.8545 H       
  58 H58            7.7040     3.5085    13.2179 H       
  59 H59            6.8576     2.6506    14.5278 H       
  60 H60            7.5948     1.7321    13.1932 H       
  61 H61            4.1020     4.1001    12.4872 H       
  62 H62            4.8179     4.0334    14.1155 H       
  63 H63            5.6643     4.8914    12.8056 H       
  64 H64            5.4019     0.6214    12.7462 H       
  65 H65            4.6647     1.5399    14.0808 H       
  66 H66            3.9488     1.6065    12.4525 H       
@<TRIPOS>BOND
   1    1    2 ar
   2    1    3 ar
   3    1   23 1
   4    2    6 ar
   5    2   40 1
   6    3    4 ar
   7    3   41 1
   8    4    5 ar
   9    4   42 1
  10    5    6 ar
  11    5    7 ar
  12    6   10 ar
  13    7    8 ar
  14    7   11 1
  15    8    9 ar
  16    8   43 1
  17    9   10 ar
  18    9   44 1
  19   11   12 1
  20   12   13 1
  21   12   45 1
  22   12   46 1
  23   13   14 1
  24   13   17 2
  25   14   15 1
  26   14   18 1
  27   15   16 2
  28   15   21 1
  29   16   17 1
  30   18   19 2
  31   19   20 1
  32   19   22 1
  33   20   21 2
  34   20   47 1
  35   21   48 1
  36   22   25 ar
  37   22   26 ar
  38   23   24 1
  39   24   49 1
  40   24   50 1
  41   24   51 1
  42   25   31 ar
  43   25   52 1
  44   26   27 ar
  45   26   53 1
  46   27   28 1
  47   27   29 ar
  48   29   30 1
  49   29   31 ar
  50   30   32 1
  51   30   54 1
  52   30   55 1
  53   31   56 1
  54   32   33 am
  55   32   57 1
  56   33   34 1
  57   33   35 2
  58   34   36 1
  59   36   37 1
  60   36   38 1
  61   36   39 1
  62   37   58 1
  63   37   59 1
  64   37   60 1
  65   38   61 1
  66   38   62 1
  67   38   63 1
  68   39   64 1
  69   39   65 1
  70   39   66 1

#	End of record

