#	Name: ASD02030080
#	Creating user name:	WinNT
#	Creation time:	15. 06. 2019 20:14

#	Modifying user name:	WinNT
#	Modification time:	15. 06. 2019 20:14

#	Program:	/corina/corina34_cracker 3.40 0067  02.08.2006

@<TRIPOS>MOLECULE
ASD02030080
  70   73    0    0    0
SMALL
NO_CHARGES


@<TRIPOS>ATOM
   1 C1             0.1021     1.5362     0.2363 C.3     
   2 C2            -0.0340     0.0622     0.5187 C.2     
   3 O3             0.8188    -0.7096     0.1359 O.2     
   4 C4            -1.2043    -0.4413     1.2604 C.ar    
   5 C5            -1.2687    -1.7864     1.6359 C.ar    
   6 C6            -2.2477     0.4274     1.5938 C.ar    
   7 C7            -3.3408    -0.0440     2.2874 C.ar    
   8 C8            -3.4066    -1.3886     2.6573 C.ar    
   9 C9            -2.3626    -2.2557     2.3295 C.ar    
  10 C10           -4.5808    -1.8937     3.4026 C.2     
  11 O11           -4.6447    -3.1908     3.7597 O.3     
  12 O12           -5.4868    -1.1388     3.6924 O.2     
  13 C13           -5.8261    -3.6163     4.4890 C.3     
  14 C14           -6.1574    -5.0701     4.0926 C.3     
  15 N15           -4.9121    -5.8385     4.0210 N.am    
  16 C16           -4.8414    -6.9361     3.2421 C.2     
  17 O17           -5.8111    -7.2887     2.5989 O.2     
  18 C18           -3.5868    -7.7103     3.1700 C.ar    
  19 C19           -3.5114    -8.8486     2.3630 C.ar    
  20 C20           -2.4694    -7.3035     3.9039 C.ar    
  21 C21           -1.3006    -8.0281     3.8335 C.ar    
  22 C22           -1.2314    -9.1629     3.0338 C.ar    
  23 C23           -2.3390    -9.5678     2.2980 C.ar    
  24 O24           -0.0777    -9.8744     2.9670 O.3     
  25 C25           -5.5708    -3.4514     5.9626 C.3     
  26 C26           -6.8978    -3.0782     6.6606 C.3     
  27 C27           -7.7622    -4.2412     6.8271 C.3     
  28 N28           -8.1512    -4.8579     5.5414 N.3     
  29 C29           -7.1058    -5.7486     5.0996 C.3     
  30 C30            1.5543     1.8737     0.0171 C.ar    
  31 C31            2.1028     2.9908     0.6190 C.ar    
  32 C32            3.4349     3.3004     0.4179 C.ar    
  33 C33            4.2187     2.4926    -0.3847 C.ar    
  34 C34            3.6705     1.3750    -0.9858 C.ar    
  35 C35            2.3394     1.0630    -0.7812 C.ar    
  36 C36           -0.6990     1.8913    -1.0179 C.3     
  37 F37           -2.0472     1.5780    -0.8144 F       
  38 F38           -0.5726     3.2597    -1.2800 F       
  39 F39           -0.2096     1.1610    -2.1061 F       
  40 O40           -0.3978     2.2822     1.3479 O.3     
  41 C41            0.2853     2.0233     2.5761 C.3     
  42 H42           -0.4614    -2.4574     1.3821 H       
  43 H43           -2.1968     1.4676     1.3080 H       
  44 H44           -4.1468     0.6269     2.5453 H       
  45 H45           -2.4145    -3.2957     2.6161 H       
  46 H46           -6.6622    -2.9776     4.2042 H       
  47 H47           -6.6290    -5.0698     3.1100 H       
  48 H48           -4.1385    -5.5573     4.5341 H       
  49 H49           -4.3717    -9.1640     1.7913 H       
  50 H50           -2.5224    -6.4217     4.5253 H       
  51 H51           -0.4365    -7.7142     4.4002 H       
  52 H52           -2.2812   -10.4501     1.6778 H       
  53 H53           -0.0098   -10.5766     3.6284 H       
  54 H54           -5.1921    -4.3868     6.3745 H       
  55 H55           -4.8398    -2.6584     6.1201 H       
  56 H56           -6.6777    -2.6551     7.6407 H       
  57 H57           -7.4177    -2.3313     6.0606 H       
  58 H58           -7.2391    -4.9843     7.4290 H       
  59 H59           -8.6643    -3.9353     7.3570 H       
  60 H60           -9.0303    -5.3459     5.6258 H       
  61 H61           -7.5588    -6.6205     4.6278 H       
  62 H62           -6.5291    -6.0752     5.9650 H       
  63 H63            1.4904     3.6218     1.2460 H       
  64 H64            3.8633     4.1735     0.8875 H       
  65 H65            5.2593     2.7349    -0.5424 H       
  66 H66            4.2828     0.7441    -1.6131 H       
  67 H67            1.9111     0.1899    -1.2508 H       
  68 H68           -0.1533     2.6277     3.3702 H       
  69 H69            0.1906     0.9673     2.8288 H       
  70 H70            1.3395     2.2775     2.4661 H       
@<TRIPOS>BOND
   1    1    2 1
   2    1   30 1
   3    1   36 1
   4    1   40 1
   5    2    3 2
   6    2    4 1
   7    4    5 ar
   8    4    6 ar
   9    5    9 ar
  10    5   42 1
  11    6    7 ar
  12    6   43 1
  13    7    8 ar
  14    7   44 1
  15    8    9 ar
  16    8   10 1
  17    9   45 1
  18   10   11 1
  19   10   12 2
  20   11   13 1
  21   13   25 1
  22   13   14 1
  23   13   46 1
  24   14   15 1
  25   14   29 1
  26   14   47 1
  27   15   16 am
  28   15   48 1
  29   16   17 2
  30   16   18 1
  31   18   19 ar
  32   18   20 ar
  33   19   23 ar
  34   19   49 1
  35   20   21 ar
  36   20   50 1
  37   21   22 ar
  38   21   51 1
  39   22   23 ar
  40   22   24 1
  41   23   52 1
  42   24   53 1
  43   25   26 1
  44   25   54 1
  45   25   55 1
  46   26   27 1
  47   26   56 1
  48   26   57 1
  49   27   28 1
  50   27   58 1
  51   27   59 1
  52   28   29 1
  53   28   60 1
  54   29   61 1
  55   29   62 1
  56   30   31 ar
  57   30   35 ar
  58   31   32 ar
  59   31   63 1
  60   32   33 ar
  61   32   64 1
  62   33   34 ar
  63   33   65 1
  64   34   35 ar
  65   34   66 1
  66   35   67 1
  67   36   37 1
  68   36   38 1
  69   36   39 1
  70   40   41 1
  71   41   68 1
  72   41   69 1
  73   41   70 1

#	End of record

