#	Name: ASD01020018
#	Creating user name:	WinNT
#	Creation time:	15. 06. 2019 18:56

#	Modifying user name:	WinNT
#	Modification time:	15. 06. 2019 18:56

#	Program:	/corina/corina34_cracker 3.40 0067  02.08.2006

@<TRIPOS>MOLECULE
ASD01020018
  64   69    0    0    0
SMALL
NO_CHARGES


@<TRIPOS>ATOM
   1 O1            -3.5397     2.7688     0.0917 O.2     
   2 C2            -2.3586     3.0439     0.0750 C.2     
   3 N3            -1.9662     4.3327     0.1120 N.am    
   4 C4            -2.9153     5.3467     0.1695 C.2     
   5 N5            -4.1980     5.1624     0.1974 N.2     
   6 C6            -4.9557     6.2417     0.2527 C.2     
   7 C7            -4.2811     7.3928     0.2724 C.2     
   8 S8            -2.5604     7.0184     0.2210 S.3     
   9 C9            -1.3296     1.9443     0.0189 C.3     
  10 H10           -0.6872     2.0027     0.8976 H       
  11 N11           -2.0048     0.6444    -0.0068 N.am    
  12 C12           -2.8869     0.1611    -1.0749 C.3     
  13 C13           -3.3380    -1.2173    -0.6591 C.ar    
  14 C14           -4.1612    -2.1533    -1.2434 C.ar    
  15 C15           -4.3970    -3.3606    -0.6121 C.ar    
  16 C16           -3.8014    -3.6334     0.6188 C.ar    
  17 C17           -2.9686    -2.6911     1.2139 C.ar    
  18 C18           -2.7330    -1.4750     0.5746 C.ar    
  19 C19           -1.9134    -0.3037     0.9414 C.2     
  20 O20           -1.2522    -0.2092     1.9569 O.2     
  21 C21           -4.0563    -4.9293     1.2946 C.ar    
  22 C22           -3.4662    -5.2012     2.5279 C.ar    
  23 C23           -3.7047    -6.4058     3.1545 C.ar    
  24 C24           -4.5327    -7.3492     2.5570 C.ar    
  25 C25           -5.1218    -7.0802     1.3269 C.ar    
  26 C26           -4.8908    -5.8743     0.6999 C.ar    
  27 N27           -4.7725    -8.5683     3.1928 N.3     
  28 C28           -5.3147    -8.3605     4.5428 C.3     
  29 C29           -5.4885    -9.7150     5.2339 C.3     
  30 N30           -6.3862   -10.5590     4.4330 N.3     
  31 C31           -5.8441   -10.7668     3.0830 C.3     
  32 C32           -5.6703    -9.4123     2.3919 C.3     
  33 C33           -0.4941     2.1011    -1.2254 C.ar    
  34 C34           -1.0859     2.0097    -2.4714 C.ar    
  35 C35           -0.3196     2.1536    -3.6128 C.ar    
  36 C36            1.0385     2.3892    -3.5083 C.ar    
  37 C37            1.6302     2.4815    -2.2624 C.ar    
  38 C38            0.8631     2.3420    -1.1209 C.ar    
  39 H39           -1.0216     4.5527     0.0986 H       
  40 H40           -6.0345     6.1968     0.2794 H       
  41 H41           -4.7141     8.3812     0.3157 H       
  42 H42           -3.7477     0.8218    -1.1775 H       
  43 H43           -2.3405     0.1081    -2.0166 H       
  44 H44           -4.6239    -1.9440    -2.1966 H       
  45 H45           -5.0436    -4.0929    -1.0727 H       
  46 H46           -2.5068    -2.9008     2.1674 H       
  47 H47           -2.8223    -4.4689     2.9921 H       
  48 H48           -3.2477    -6.6169     4.1100 H       
  49 H49           -5.7642    -7.8147     0.8640 H       
  50 H50           -5.3522    -5.6639    -0.2536 H       
  51 H51           -4.6262    -7.7434     5.1201 H       
  52 H52           -6.2809    -7.8609     4.4737 H       
  53 H53           -4.5182   -10.2027     5.3274 H       
  54 H54           -5.9176    -9.5654     6.2246 H       
  55 H55           -6.5596   -11.4403     4.8927 H       
  56 H56           -4.8778   -11.2664     3.1521 H       
  57 H57           -6.5325   -11.3839     2.5057 H       
  58 H58           -6.6406    -8.9246     2.2984 H       
  59 H59           -5.2411    -9.5619     1.4012 H       
  60 H60           -2.1470     1.8256    -2.5530 H       
  61 H61           -0.7818     2.0814    -4.5862 H       
  62 H62            1.6374     2.5009    -4.4001 H       
  63 H63            2.6913     2.6653    -2.1808 H       
  64 H64            1.3247     2.4178    -0.1475 H       
@<TRIPOS>BOND
   1    1    2 2
   2    2    3 am
   3    2    9 1
   4    3    4 1
   5    3   39 1
   6    4    8 1
   7    4    5 2
   8    5    6 1
   9    6    7 2
  10    6   40 1
  11    7    8 1
  12    7   41 1
  13    9   10 1
  14    9   11 1
  15    9   33 1
  16   11   19 am
  17   11   12 1
  18   12   13 1
  19   12   42 1
  20   12   43 1
  21   13   18 ar
  22   13   14 ar
  23   14   15 ar
  24   14   44 1
  25   15   16 ar
  26   15   45 1
  27   16   17 ar
  28   16   21 1
  29   17   18 ar
  30   17   46 1
  31   18   19 1
  32   19   20 2
  33   21   26 ar
  34   21   22 ar
  35   22   23 ar
  36   22   47 1
  37   23   24 ar
  38   23   48 1
  39   24   25 ar
  40   24   27 1
  41   25   26 ar
  42   25   49 1
  43   26   50 1
  44   27   32 1
  45   27   28 1
  46   28   29 1
  47   28   51 1
  48   28   52 1
  49   29   30 1
  50   29   53 1
  51   29   54 1
  52   30   31 1
  53   30   55 1
  54   31   32 1
  55   31   56 1
  56   31   57 1
  57   32   58 1
  58   32   59 1
  59   33   38 ar
  60   33   34 ar
  61   34   35 ar
  62   34   60 1
  63   35   36 ar
  64   35   61 1
  65   36   37 ar
  66   36   62 1
  67   37   38 ar
  68   37   63 1
  69   38   64 1

#	End of record

