#	Name: ASD00170347
#	Creating user name:	WinNT
#	Creation time:	15. 06. 2019 18:32

#	Modifying user name:	WinNT
#	Modification time:	15. 06. 2019 18:32

#	Program:	/corina/corina34_cracker 3.40 0067  02.08.2006

@<TRIPOS>MOLECULE
ASD00170347
  33   35    0    0    0
SMALL
NO_CHARGES


@<TRIPOS>ATOM
   1 C1             0.0322     1.3769     0.1673 C.3     
   2 C2             0.1109    -0.1524     0.1322 C.3     
   3 C3             0.5460    -0.6009    -1.2648 C.3     
   4 C4             1.7906     0.1762    -1.6633 C.2     
   5 C5             2.1843     1.3012    -1.0580 C.2     
   6 C6             1.4498     1.9511     0.0993 C.3     
   7 C7             2.6842    -0.2162    -2.7398 C.2     
   8 C8             3.7385     0.6446    -2.9086 C.2     
   9 S9             3.6597     1.9188    -1.7825 S.3     
  10 C10            2.4802    -1.4097    -3.5603 C.2     
  11 C11            3.0916    -2.6954    -3.1602 C.ar    
  12 C12            2.8033    -3.8602    -3.8734 C.ar    
  13 C13            3.3766    -5.0567    -3.4964 C.ar    
  14 C14            4.2366    -5.1046    -2.4122 C.ar    
  15 C15            4.5271    -3.9514    -1.6996 C.ar    
  16 C16            3.9638    -2.7477    -2.0713 C.ar    
  17 Cl17           5.6059    -4.0206    -0.3413 Cl      
  18 Cl18           4.9533    -6.6146    -1.9431 Cl      
  19 O19            1.8070    -1.3447    -4.5730 O.2     
  20 N20            4.7275     0.4975    -3.8600 N.pl3   
  21 H21           -0.5465     1.7319    -0.6854 H       
  22 H22           -0.4466     1.6962     1.0930 H       
  23 H23            0.8376    -0.4967     0.8681 H       
  24 H24           -0.8682    -0.5729     0.3613 H       
  25 H25            0.7694    -1.6676    -1.2529 H       
  26 H26           -0.2536    -0.4009    -1.9781 H       
  27 H27            1.4005     3.0285    -0.0581 H       
  28 H28            1.9750     1.7393     1.0306 H       
  29 H29            2.1322    -3.8247    -4.7188 H       
  30 H30            3.1540    -5.9583    -4.0478 H       
  31 H31            4.1907    -1.8496    -1.5161 H       
  32 H32            4.7489    -0.2949    -4.4189 H       
  33 H33            5.4014     1.1867    -3.9696 H       
@<TRIPOS>BOND
   1    1    2 1
   2    1    6 1
   3    1   21 1
   4    1   22 1
   5    2    3 1
   6    2   23 1
   7    2   24 1
   8    3    4 1
   9    3   25 1
  10    3   26 1
  11    4    5 2
  12    4    7 1
  13    5    6 1
  14    5    9 1
  15    6   27 1
  16    6   28 1
  17    7    8 2
  18    7   10 1
  19    8    9 1
  20    8   20 1
  21   10   11 1
  22   10   19 2
  23   11   12 ar
  24   11   16 ar
  25   12   13 ar
  26   12   29 1
  27   13   14 ar
  28   13   30 1
  29   14   15 ar
  30   14   18 1
  31   15   16 ar
  32   15   17 1
  33   16   31 1
  34   20   32 1
  35   20   33 1

#	End of record

