#	Name: ASD04590386
#	Creating user name:	WinNT
#	Creation time:	15. 06. 2019 20:50

#	Modifying user name:	WinNT
#	Modification time:	15. 06. 2019 20:50

#	Program:	/corina/corina34_cracker 3.40 0067  02.08.2006

@<TRIPOS>MOLECULE
ASD04590386
  48   52    0    0    0
SMALL
NO_CHARGES


@<TRIPOS>ATOM
   1 C1            -0.0167     1.3834     0.0096 C.ar    
   2 C2             0.0021    -0.0041     0.0020 C.ar    
   3 C3             2.3948     0.0191    -0.0203 C.ar    
   4 C4             2.3756     1.4249    -0.0130 C.ar    
   5 C5             1.1624     2.0987     0.0022 C.ar    
   6 N6             3.6952    -0.3637    -0.0354 N.2     
   7 C7             4.4665     0.6967    -0.0378 C.2     
   8 N8             3.6970     1.8290    -0.0243 N.pl3   
   9 C9             5.9437     0.6731    -0.0520 C.2     
  10 C10            6.7565    -0.4840    -0.0658 C.2     
  11 C11            8.0504    -0.0800    -0.0766 C.2     
  12 N12            8.0626     1.2790    -0.0700 N.pl3   
  13 N13            6.7358     1.7273    -0.0600 N.2     
  14 N14            6.3043    -1.8133    -0.0674 N.am    
  15 C15            7.1923    -2.8272    -0.0812 C.2     
  16 O16            8.3862    -2.5904    -0.0923 O.2     
  17 C17            6.7200    -4.2154    -0.0830 C.2     
  18 C18            7.5076    -5.3309    -0.0962 C.2     
  19 C19            1.1863    -0.6848    -0.0125 C.ar    
  20 C20            6.6421    -6.4360    -0.0921 C.2     
  21 C21            5.3803    -5.9529    -0.0767 C.2     
  22 O22            5.4314    -4.6145    -0.0658 O.3     
  23 C23            4.1227    -6.7832    -0.0672 C.3     
  24 N24            3.7286    -7.0592     1.3208 N.3     
  25 C25            2.3839    -7.6612     1.3785 C.3     
  26 C26            4.6852    -7.9808     1.9699 C.3     
  27 C27            3.8231    -8.8279     2.9388 C.3     
  28 C28            2.5172    -9.0076     2.1207 C.3     
  29 H29           -0.9614     1.9069     0.0170 H       
  30 H30           -0.9290    -0.5513     0.0080 H       
  31 H31            1.1417     3.1785     0.0079 H       
  32 H32            4.0192     2.7439    -0.0234 H       
  33 H33            8.9176    -0.7237    -0.0880 H       
  34 H34            8.8531     1.8410    -0.0751 H       
  35 H35            5.3529    -2.0020    -0.0586 H       
  36 H36            8.5872    -5.3576    -0.1080 H       
  37 H37            1.1893    -1.7648    -0.0177 H       
  38 H38            6.9306    -7.4768    -0.1001 H       
  39 H39            3.3238    -6.2384    -0.5702 H       
  40 H40            4.3044    -7.7238    -0.5872 H       
  41 H41            1.7062    -7.0033     1.9226 H       
  42 H42            2.0095    -7.8298     0.3688 H       
  43 H43            5.1599    -8.6208     1.2260 H       
  44 H44            5.4373    -7.4189     2.5237 H       
  45 H45            4.2934    -9.7905     3.1399 H       
  46 H46            3.6319    -8.2872     3.8657 H       
  47 H47            1.6666    -9.1684     2.7830 H       
  48 H48            2.6163    -9.8300     1.4122 H       
@<TRIPOS>BOND
   1    1    2 ar
   2    1    5 ar
   3    1   29 1
   4    2   19 ar
   5    2   30 1
   6    3    4 ar
   7    3    6 1
   8    3   19 ar
   9    4    5 ar
  10    4    8 1
  11    5   31 1
  12    6    7 2
  13    7    8 1
  14    7    9 1
  15    8   32 1
  16    9   10 1
  17    9   13 2
  18   10   11 2
  19   10   14 1
  20   11   12 1
  21   11   33 1
  22   12   13 1
  23   12   34 1
  24   14   15 am
  25   14   35 1
  26   15   16 2
  27   15   17 1
  28   17   18 2
  29   17   22 1
  30   18   20 1
  31   18   36 1
  32   19   37 1
  33   20   21 2
  34   20   38 1
  35   21   22 1
  36   21   23 1
  37   23   24 1
  38   23   39 1
  39   23   40 1
  40   24   25 1
  41   24   26 1
  42   25   28 1
  43   25   41 1
  44   25   42 1
  45   26   27 1
  46   26   43 1
  47   26   44 1
  48   27   28 1
  49   27   45 1
  50   27   46 1
  51   28   47 1
  52   28   48 1

#	End of record

