#	Name: ASD08150345
#	Creating user name:	WinNT
#	Creation time:	15. 06. 2019 21:15

#	Modifying user name:	WinNT
#	Modification time:	15. 06. 2019 21:15

#	Program:	/corina/corina34_cracker 3.40 0067  02.08.2006

@<TRIPOS>MOLECULE
ASD08150345
  68   73    0    0    0
SMALL
NO_CHARGES


@<TRIPOS>ATOM
   1 N1            -0.8972    -0.3824    -0.9946 N.am    
   2 C2            -0.1459    -0.3552    -2.1125 C.2     
   3 C3             1.0601    -1.0806    -2.1918 C.2     
   4 C4             1.4826    -1.8210    -1.1354 C.2     
   5 C5             0.6948    -1.8515     0.0424 C.ar    
   6 C6             1.0873    -2.6026     1.1667 C.ar    
   7 N7             0.3587    -2.6286     2.2521 N.ar    
   8 C8            -0.7931    -1.9494     2.3598 C.ar    
   9 C9            -1.2656    -1.1665     1.2775 C.ar    
  10 C10           -0.5008    -1.1176     0.0882 C.ar    
  11 C11           -2.4676    -0.4633     1.3993 C.ar    
  12 C12           -3.1865    -0.5401     2.5820 C.ar    
  13 C13           -2.7121    -1.3168     3.6490 C.ar    
  14 C14           -1.5447    -2.0062     3.5452 C.ar    
  15 O15           -0.5143     0.3056    -3.0687 O.2     
  16 C16           -4.4619     0.2022     2.7198 C.ar    
  17 C17           -2.0893     0.3518    -0.9390 C.ar    
  18 C18           -2.0569     1.7067    -0.6342 C.ar    
  19 C19           -3.2309     2.4299    -0.5794 C.ar    
  20 C20           -4.4454     1.8029    -0.8289 C.ar    
  21 C21           -4.4776     0.4481    -1.1336 C.ar    
  22 C22           -3.3025    -0.2739    -1.1940 C.ar    
  23 N23           -5.6348     2.5353    -0.7729 N.3     
  24 C24           -4.6244     1.4483     2.1104 C.ar    
  25 C25           -6.0787     2.9222    -2.1187 C.3     
  26 C26           -7.4688     3.5610    -2.0306 C.3     
  27 N27           -7.4174     4.6588    -1.0531 N.am    
  28 C28           -6.8558     4.3801     0.2774 C.3     
  29 C29           -5.4898     3.7091     0.0984 C.3     
  30 N30           -5.7526     2.1114     2.2282 N.ar    
  31 C31           -6.7769     1.6304     2.9247 C.ar    
  32 C32           -6.6887     0.3916     3.5623 C.ar    
  33 C33           -5.5204    -0.3387     3.4570 C.ar    
  34 C34           -7.8724     5.8876    -1.3683 C.2     
  35 O35           -8.3320     6.0998    -2.4704 O.2     
  36 C36           -7.8101     6.9980    -0.3514 C.3     
  37 C37           -8.3858     8.2788    -0.9588 C.3     
  38 C38           -5.7948    -0.2323    -1.4043 C.3     
  39 F39           -5.5876    -1.6082    -1.5504 F       
  40 F40           -6.6667    -0.0030    -0.3345 F       
  41 F41           -6.3528     0.2826    -2.5794 F       
  42 C42           -7.9855     2.3921     3.0230 C.1     
  43 N43           -8.9443     2.9964     3.1009 N.1     
  44 H44            1.6496    -1.0476    -3.0961 H       
  45 H45            2.4055    -2.3790    -1.1917 H       
  46 H46            2.0067    -3.1681     1.1317 H       
  47 H47           -2.8332     0.1357     0.5783 H       
  48 H48           -3.2813    -1.3678     4.5654 H       
  49 H49           -1.1943    -2.5997     4.3767 H       
  50 H50           -1.1129     2.1940    -0.4399 H       
  51 H51           -3.2057     3.4833    -0.3421 H       
  52 H52           -3.3271    -1.3262    -1.4356 H       
  53 H53           -3.8136     1.8717     1.5362 H       
  54 H54           -5.3751     3.6393    -2.5416 H       
  55 H55           -6.1243     2.0383    -2.7549 H       
  56 H56           -7.7542     3.9530    -3.0068 H       
  57 H57           -8.1945     2.8153    -1.7059 H       
  58 H58           -6.7359     5.3137     0.8271 H       
  59 H59           -7.5225     3.7131     0.8239 H       
  60 H60           -5.1083     3.3958     1.0702 H       
  61 H61           -4.7944     4.4151    -0.3554 H       
  62 H62           -7.5247     0.0069     4.1275 H       
  63 H63           -5.4239    -1.3002     3.9393 H       
  64 H64           -8.3919     6.7191     0.5272 H       
  65 H65           -6.7731     7.1675    -0.0616 H       
  66 H66           -8.3408     9.0819    -0.2232 H       
  67 H67           -7.8040     8.5577    -1.8373 H       
  68 H68           -9.4228     8.1093    -1.2486 H       
@<TRIPOS>BOND
   1    1    2 am
   2    1   10 1
   3    1   17 1
   4    2    3 1
   5    2   15 2
   6    3    4 2
   7    3   44 1
   8    4    5 1
   9    4   45 1
  10    5    6 ar
  11    5   10 ar
  12    6    7 ar
  13    6   46 1
  14    7    8 ar
  15    8    9 ar
  16    8   14 ar
  17    9   10 ar
  18    9   11 ar
  19   11   12 ar
  20   11   47 1
  21   12   13 ar
  22   12   16 1
  23   13   14 ar
  24   13   48 1
  25   14   49 1
  26   16   24 ar
  27   16   33 ar
  28   17   18 ar
  29   17   22 ar
  30   18   19 ar
  31   18   50 1
  32   19   20 ar
  33   19   51 1
  34   20   21 ar
  35   20   23 1
  36   21   22 ar
  37   21   38 1
  38   22   52 1
  39   23   25 1
  40   23   29 1
  41   24   30 ar
  42   24   53 1
  43   25   26 1
  44   25   54 1
  45   25   55 1
  46   26   27 1
  47   26   56 1
  48   26   57 1
  49   27   28 1
  50   27   34 am
  51   28   29 1
  52   28   58 1
  53   28   59 1
  54   29   60 1
  55   29   61 1
  56   30   31 ar
  57   31   32 ar
  58   31   42 1
  59   32   33 ar
  60   32   62 1
  61   33   63 1
  62   34   35 2
  63   34   36 1
  64   36   37 1
  65   36   64 1
  66   36   65 1
  67   37   66 1
  68   37   67 1
  69   37   68 1
  70   38   39 1
  71   38   40 1
  72   38   41 1
  73   42   43 3

#	End of record

