#	Name: ASD02590021
#	Creating user name:	WinNT
#	Creation time:	15. 06. 2019 20:25

#	Modifying user name:	WinNT
#	Modification time:	15. 06. 2019 20:25

#	Program:	/corina/corina34_cracker 3.40 0067  02.08.2006

@<TRIPOS>MOLECULE
ASD02590021
  28   30    0    0    0
SMALL
NO_CHARGES


@<TRIPOS>ATOM
   1 C1            -0.0168     1.3891     0.0097 C.ar    
   2 C2             0.0021    -0.0041     0.0020 C.ar    
   3 C3            -1.1777    -0.7182     0.0094 C.ar    
   4 C4            -2.3927    -0.0474     0.0251 C.ar    
   5 C5            -2.4200     1.3589     0.0334 C.ar    
   6 C6            -1.2158     2.0714     0.0305 C.ar    
   7 N7            -3.7122    -0.4579     0.0361 N.pl3   
   8 C8            -4.4866     0.6706     0.0503 C.2     
   9 N9            -3.7215     1.7339     0.0487 N.2     
  10 C10           -5.9663     0.6870     0.0653 C.ar    
  11 C11           -6.6442     1.9051     0.0791 C.ar    
  12 C12           -8.0288     1.9040     0.0931 C.ar    
  13 C13           -8.6901     0.6847     0.0928 C.ar    
  14 C14           -7.9538    -0.4872     0.0787 C.ar    
  15 N15           -6.6378    -0.4586     0.0601 N.ar    
  16 Cl16           1.5201    -0.8461    -0.0176 Cl      
  17 O17            1.1541     2.0807     0.0022 O.3     
  18 C18            1.0652     3.5069     0.0107 C.3     
  19 H19           -1.1562    -1.7979     0.0027 H       
  20 H20           -1.2249     3.1514     0.0368 H       
  21 H21           -4.0301    -1.3743     0.0341 H       
  22 H22           -6.0972     2.8363     0.0792 H       
  23 H23           -8.5815     2.8318     0.1043 H       
  24 H24           -9.7695     0.6501     0.1038 H       
  25 H25           -8.4659    -1.4380     0.0784 H       
  26 H26            0.5213     3.8424    -0.8723 H       
  27 H27            0.5383     3.8328     0.9075 H       
  28 H28            2.0682     3.9335     0.0034 H       
@<TRIPOS>BOND
   1    1    2 ar
   2    1   17 1
   3    1    6 ar
   4    2    3 ar
   5    2   16 1
   6    3    4 ar
   7    3   19 1
   8    4    5 ar
   9    4    7 1
  10    5    6 ar
  11    5    9 1
  12    6   20 1
  13    7    8 1
  14    7   21 1
  15    8    9 2
  16    8   10 1
  17   10   11 ar
  18   10   15 ar
  19   11   12 ar
  20   11   22 1
  21   12   13 ar
  22   12   23 1
  23   13   14 ar
  24   13   24 1
  25   14   15 ar
  26   14   25 1
  27   17   18 1
  28   18   26 1
  29   18   27 1
  30   18   28 1

#	End of record

