#	Name: ASD01915015
#	Creating user name:	WinNT
#	Creation time:	15. 06. 2019 20:04

#	Modifying user name:	WinNT
#	Modification time:	15. 06. 2019 20:04

#	Program:	/corina/corina34_cracker 3.40 0067  02.08.2006

@<TRIPOS>MOLECULE
ASD01915015
  28   29    0    0    0
SMALL
NO_CHARGES


@<TRIPOS>ATOM
   1 C1            -0.0168     1.3908     0.0097 C.ar    
   2 C2             0.0021    -0.0041     0.0020 C.ar    
   3 C3             1.2244    -0.6607    -0.0132 C.ar    
   4 C4             2.3827     0.0996    -0.0202 C.ar    
   5 C5             2.2885     1.4826    -0.0119 C.ar    
   6 N6             1.1177     2.0805     0.0026 N.ar    
   7 C7            -1.3116     2.1073     0.0197 C.2     
   8 O8            -2.3521     1.4812     0.0212 O.2     
   9 O9            -1.3359     3.4540     0.0271 O.3     
  10 C10            3.7323    -0.5707    -0.0363 C.3     
  11 O11            4.1463    -0.7757    -1.3886 O.3     
  12 C12            5.3512    -1.3741    -1.5810 C.ar    
  13 C13            5.8152    -1.6040    -2.8680 C.ar    
  14 C14            7.0404    -2.2125    -3.0609 C.ar    
  15 C15            7.8040    -2.5922    -1.9726 C.ar    
  16 C16            7.3436    -2.3646    -0.6889 C.ar    
  17 C17            6.1219    -1.7509    -0.4906 C.ar    
  18 Cl18          -1.4817    -0.9052     0.0120 Cl      
  19 H19            1.2719    -1.7396    -0.0191 H       
  20 H20            3.1899     2.0775    -0.0170 H       
  21 H21           -2.2053     3.8773     0.0336 H       
  22 H22            4.4584     0.0622     0.4740 H       
  23 H23            3.6667    -1.5319     0.4733 H       
  24 H24            5.2190    -1.3079    -3.7184 H       
  25 H25            7.4018    -2.3920    -4.0627 H       
  26 H26            8.7615    -3.0677    -2.1255 H       
  27 H27            7.9416    -2.6627     0.1596 H       
  28 H28            5.7649    -1.5689     0.5123 H       
@<TRIPOS>BOND
   1    1    2 ar
   2    1    6 ar
   3    1    7 1
   4    2    3 ar
   5    2   18 1
   6    3    4 ar
   7    3   19 1
   8    4    5 ar
   9    4   10 1
  10    5    6 ar
  11    5   20 1
  12    7    8 2
  13    7    9 1
  14    9   21 1
  15   10   11 1
  16   10   22 1
  17   10   23 1
  18   11   12 1
  19   12   13 ar
  20   12   17 ar
  21   13   14 ar
  22   13   24 1
  23   14   15 ar
  24   14   25 1
  25   15   16 ar
  26   15   26 1
  27   16   17 ar
  28   16   27 1
  29   17   28 1

#	End of record

