#	Name: ASD01816207
#	Creating user name:	WinNT
#	Creation time:	15. 06. 2019 19:34

#	Modifying user name:	WinNT
#	Modification time:	15. 06. 2019 19:34

#	Program:	/corina/corina34_cracker 3.40 0067  02.08.2006

@<TRIPOS>MOLECULE
ASD01816207
  48   52    0    0    0
SMALL
NO_CHARGES


@<TRIPOS>ATOM
   1 C1            -0.0167     1.3813     0.0096 C.ar    
   2 C2             0.0021    -0.0041     0.0020 C.ar    
   3 C3             1.1984    -0.6909    -0.0131 C.ar    
   4 C4             2.4015     0.0059    -0.0203 C.ar    
   5 C5             2.3790     1.4106    -0.0126 C.ar    
   6 C6             1.1663     2.0916     0.0022 C.ar    
   7 N7             3.6053    -0.6772    -0.0345 N.pl3   
   8 C8             4.7970    -0.0586    -0.0420 C.2     
   9 C9             4.9000     1.3103    -0.0361 C.2     
  10 C10            3.6670     2.1301    -0.0205 C.2     
  11 C11            5.9971     2.2729    -0.0415 C.2     
  12 N12            5.4246     3.4960    -0.0304 N.am    
  13 N13            4.0323     3.3799    -0.0179 N.2     
  14 C14            6.1265     4.7082    -0.0309 C.ar    
  15 C15            5.8873     5.6525     0.9617 C.ar    
  16 C16            7.0667     4.9675    -1.0190 C.ar    
  17 C17            7.7574     6.1637    -1.0169 C.ar    
  18 C18            7.5143     7.1036    -0.0320 C.ar    
  19 C19            6.5827     6.8481     0.9573 C.ar    
  20 F20            4.9771     5.4027     1.9283 F       
  21 O21            7.1914     2.0229    -0.0529 O.2     
  22 C22            3.5779    -2.1419    -0.0411 C.3     
  23 C23            3.5552    -2.6451    -1.4858 C.3     
  24 C24            3.5266    -4.1757    -1.4929 C.3     
  25 C25            3.4432    -4.6703    -2.9403 C.3     
  26 C26            2.2043    -4.0626    -3.6053 C.3     
  27 C27            2.2841    -2.5364    -3.5166 C.3     
  28 O28            2.3908    -2.1451    -2.1463 O.3     
  29 H29           -0.9602     1.9068     0.0169 H       
  30 H30           -0.9289    -0.5516     0.0083 H       
  31 H31            1.2004    -1.7709    -0.0189 H       
  32 H32            1.1506     3.1715     0.0084 H       
  33 H33            5.6983    -0.6536    -0.0527 H       
  34 H34            7.2583     4.2342    -1.7884 H       
  35 H35            8.4887     6.3652    -1.7856 H       
  36 H36            8.0566     8.0375    -0.0330 H       
  37 H37            6.3950     7.5844     1.7248 H       
  38 H38            4.4656    -2.5242     0.4629 H       
  39 H39            2.6860    -2.4910     0.4793 H       
  40 H40            4.4468    -2.2958    -2.0064 H       
  41 H41            4.4352    -4.5592    -1.0287 H       
  42 H42            2.6567    -4.5264    -0.9375 H       
  43 H43            4.3367    -4.3619    -3.4830 H       
  44 H44            3.3660    -5.7576    -2.9502 H       
  45 H45            2.1673    -4.3652    -4.6518 H       
  46 H46            1.3078    -4.4110    -3.0926 H       
  47 H47            3.1590    -2.1856    -4.0640 H       
  48 H48            1.3845    -2.0996    -3.9503 H       
@<TRIPOS>BOND
   1    1    2 ar
   2    1    6 ar
   3    1   29 1
   4    2    3 ar
   5    2   30 1
   6    3    4 ar
   7    3   31 1
   8    4    5 ar
   9    4    7 1
  10    5    6 ar
  11    5   10 1
  12    6   32 1
  13    7    8 1
  14    7   22 1
  15    8    9 2
  16    8   33 1
  17    9   10 1
  18    9   11 1
  19   10   13 2
  20   11   12 am
  21   11   21 2
  22   12   13 1
  23   12   14 1
  24   14   15 ar
  25   14   16 ar
  26   15   20 1
  27   15   19 ar
  28   16   17 ar
  29   16   34 1
  30   17   18 ar
  31   17   35 1
  32   18   19 ar
  33   18   36 1
  34   19   37 1
  35   22   23 1
  36   22   38 1
  37   22   39 1
  38   23   24 1
  39   23   28 1
  40   23   40 1
  41   24   25 1
  42   24   41 1
  43   24   42 1
  44   25   26 1
  45   25   43 1
  46   25   44 1
  47   26   27 1
  48   26   45 1
  49   26   46 1
  50   27   28 1
  51   27   47 1
  52   27   48 1

#	End of record

