#	Name: ASD03320191
#	Creating user name:	WinNT
#	Creation time:	15. 06. 2019 20:36

#	Modifying user name:	WinNT
#	Modification time:	15. 06. 2019 20:36

#	Program:	/corina/corina34_cracker 3.40 0067  02.08.2006

@<TRIPOS>MOLECULE
ASD03320191
  52   55    0    0    0
SMALL
NO_CHARGES


@<TRIPOS>ATOM
   1 C1             0.0250     1.4016    -0.2162 C.ar    
   2 C2            -0.0930     0.0107    -0.2020 C.ar    
   3 N3            -1.2526    -0.5660     0.0383 N.ar    
   4 C4            -2.3447     0.1327     0.2745 C.ar    
   5 C5            -2.3162     1.5268     0.2797 C.ar    
   6 C6            -1.1087     2.1806     0.0355 C.ar    
   7 C7             1.3299     2.0412    -0.4872 C.2     
   8 O8             1.4222     3.2533    -0.4974 O.2     
   9 N9             2.4172     1.2805    -0.7230 N.am    
  10 C10            3.6308     1.8838    -1.0755 C.ar    
  11 C11           -3.5521     2.3038     0.5469 C.ar    
  12 C12            3.9836     3.1086    -0.5242 C.ar    
  13 C13            5.1804     3.7029    -0.8722 C.ar    
  14 C14            6.0300     3.0771    -1.7728 C.ar    
  15 C15            5.6782     1.8536    -2.3240 C.ar    
  16 C16            4.4846     1.2550    -1.9721 C.ar    
  17 O17            7.2079     3.6633    -2.1157 O.3     
  18 C18            8.0337     2.9631    -3.0483 C.3     
  19 F19            7.3370     2.7888    -4.2489 F       
  20 F20            9.1972     3.7022    -3.2875 F       
  21 F21            8.3754     1.7129    -2.5216 F       
  22 C22           -3.6792     3.0744     1.7052 C.ar    
  23 N23           -4.7972     3.7511     1.9042 N.ar    
  24 C24           -5.7821     3.7056     1.0290 C.ar    
  25 N25           -5.7032     2.9909    -0.0759 N.ar    
  26 C26           -4.6183     2.2893    -0.3557 C.ar    
  27 C27           -3.6425    -0.5850     0.5424 C.3     
  28 C28           -3.3790    -2.0881     0.6748 C.3     
  29 C29           -4.6890    -2.7991     1.0245 C.3     
  30 O30           -5.2200    -2.2496     2.2321 O.3     
  31 C31           -5.5302    -0.8569     2.1525 C.3     
  32 C32           -4.2540    -0.0680     1.8482 C.3     
  33 C33           -4.5765    -0.3449    -0.5698 C.1     
  34 N34           -5.2973    -0.1597    -1.4280 N.1     
  35 H35            0.7774    -0.6002    -0.3907 H       
  36 H36           -1.0526     3.2592     0.0325 H       
  37 H37            2.3591     0.3151    -0.6485 H       
  38 H38            3.3220     3.5963     0.1764 H       
  39 H39            5.4549     4.6554    -0.4436 H       
  40 H40            6.3399     1.3671    -3.0252 H       
  41 H41            4.2108     0.3025    -2.4013 H       
  42 H42           -2.8768     3.1163     2.4268 H       
  43 H43           -6.6815     4.2710     1.2235 H       
  44 H44           -4.5610     1.7061    -1.2629 H       
  45 H45           -2.9952    -2.4752    -0.2691 H       
  46 H46           -2.6483    -2.2616     1.4648 H       
  47 H47           -5.4058    -2.6590     0.2154 H       
  48 H48           -4.4993    -3.8636     1.1620 H       
  49 H49           -6.2580    -0.6914     1.3581 H       
  50 H50           -5.9465    -0.5224     3.1027 H       
  51 H51           -3.5410    -0.2006     2.6619 H       
  52 H52           -4.4959     0.9897     1.7434 H       
@<TRIPOS>BOND
   1    1    2 ar
   2    1    7 1
   3    1    6 ar
   4    2    3 ar
   5    2   35 1
   6    3    4 ar
   7    4    5 ar
   8    4   27 1
   9    5    6 ar
  10    5   11 1
  11    6   36 1
  12    7    8 2
  13    7    9 am
  14    9   10 1
  15    9   37 1
  16   10   12 ar
  17   10   16 ar
  18   11   22 ar
  19   11   26 ar
  20   12   13 ar
  21   12   38 1
  22   13   14 ar
  23   13   39 1
  24   14   15 ar
  25   14   17 1
  26   15   16 ar
  27   15   40 1
  28   16   41 1
  29   17   18 1
  30   18   19 1
  31   18   20 1
  32   18   21 1
  33   22   23 ar
  34   22   42 1
  35   23   24 ar
  36   24   25 ar
  37   24   43 1
  38   25   26 ar
  39   26   44 1
  40   27   28 1
  41   27   32 1
  42   27   33 1
  43   28   29 1
  44   28   45 1
  45   28   46 1
  46   29   30 1
  47   29   47 1
  48   29   48 1
  49   30   31 1
  50   31   32 1
  51   31   49 1
  52   31   50 1
  53   32   51 1
  54   32   52 1
  55   33   34 3

#	End of record

