#	Name: ASD02320038
#	Creating user name:	WinNT
#	Creation time:	15. 06. 2019 20:20

#	Modifying user name:	WinNT
#	Modification time:	15. 06. 2019 20:20

#	Program:	/corina/corina34_cracker 3.40 0067  02.08.2006

@<TRIPOS>MOLECULE
ASD02320038
  84   90    0    0    0
SMALL
NO_CHARGES


@<TRIPOS>ATOM
   1 C1             1.1789    -0.3967     1.3757 C.ar    
   2 C2             1.2182    -1.7824     1.2947 C.ar    
   3 C3             2.4168    -2.4480     1.1706 C.ar    
   4 C4             3.6104    -1.7221     1.1253 C.ar    
   5 C5             3.5660    -0.3115     1.2080 C.ar    
   6 C6             2.3419     0.3415     1.3333 C.ar    
   7 N7             4.8043    -2.3364     1.0048 N.2     
   8 C8             5.9234    -1.6606     0.9625 C.2     
   9 N9             5.9745    -0.2956     1.0362 N.am    
  10 C10            4.8366     0.4270     1.1583 C.2     
  11 C11            7.1925    -2.4069     0.8292 C.ar    
  12 C12            8.2167    -2.2173     1.7570 C.ar    
  13 C13            9.4028    -2.9200     1.6257 C.ar    
  14 C14            9.5704    -3.8098     0.5734 C.ar    
  15 C15            8.5561    -3.9984    -0.3474 C.ar    
  16 C16            7.3681    -3.3082    -0.2225 C.ar    
  17 N17           10.7446     2.1732    -2.0467 N.pl3   
  18 C18           11.8495     1.7300    -2.6899 C.2     
  19 N19           11.0247     3.3017    -1.4946 N.2     
  20 N20           12.2462     3.6236    -1.7378 N.2     
  21 C21           12.8056     2.6661    -2.4860 C.2     
  22 C22           14.2219     2.6353    -2.9999 C.3     
  23 N23           14.3028     3.3883    -4.2539 N.am    
  24 C24           14.6674     4.7066    -4.2329 C.2     
  25 C25           14.0218     2.7739    -5.4267 C.2     
  26 C26           14.1192     3.5779    -6.6538 C.ar    
  27 C27           14.4978     4.9346    -6.5349 C.ar    
  28 N28           14.7602     5.4391    -5.3126 N.2     
  29 C29           13.8507     3.0382    -7.9102 C.ar    
  30 C30           13.9581     3.8380    -9.0273 C.ar    
  31 C31           14.3307     5.1707    -8.9090 C.ar    
  32 C32           14.5976     5.7203    -7.6869 C.ar    
  33 C33           14.9702     5.3330    -2.9286 C.ar    
  34 C34           15.9313     4.7703    -2.0879 C.ar    
  35 C35           16.2099     5.3628    -0.8681 C.ar    
  36 C36           15.5339     6.5132    -0.4837 C.ar    
  37 C37           14.5811     7.0716    -1.3153 C.ar    
  38 C38           14.2999     6.4927    -2.5361 C.ar    
  39 O39           13.7010     1.6003    -5.4642 O.2     
  40 O40            4.8641     1.6421     1.2248 O.2     
  41 C41            7.2689     0.3884     0.9827 C.3     
  42 C42            7.6836     0.5817    -0.4773 C.3     
  43 C43            9.0355     1.2960    -0.5332 C.3     
  44 C44            9.4502     1.4892    -1.9932 C.3     
  45 O45           10.4037    -2.7379     2.5273 O.3     
  46 C46           10.1893    -3.1860     3.7747 C.2     
  47 O47            9.1129    -3.6457     4.0748 O.2     
  48 C48           11.2910    -3.1154     4.8005 C.3     
  49 O49           17.1453     4.8180    -0.0463 O.3     
  50 S50           18.5537     5.3479    -0.2742 S.o2    
  51 O51           19.4186     4.5403     0.5126 O.2     
  52 O52           18.7010     5.5047    -1.6789 O.2     
  53 O53           18.6109     6.7468     0.3227 O.3     
  54 Na54          18.6950     6.7758     2.3107 Du      
  55 H55            0.2282     0.1073     1.4682 H       
  56 H56            0.2969    -2.3450     1.3299 H       
  57 H57            2.4348    -3.5260     1.1089 H       
  58 H58            2.3045     1.4190     1.3964 H       
  59 H59            8.0852    -1.5245     2.5750 H       
  60 H60           10.4965    -4.3564     0.4734 H       
  61 H61            8.6927    -4.6915    -1.1643 H       
  62 H62            6.5779    -3.4579    -0.9434 H       
  63 H63           11.9486     0.8134    -3.2526 H       
  64 H64           14.8860     3.0857    -2.2621 H       
  65 H65           14.5220     1.6024    -3.1763 H       
  66 H66           13.5613     2.0023    -8.0077 H       
  67 H67           13.7511     3.4247   -10.0034 H       
  68 H68           14.4099     5.7818    -9.7959 H       
  69 H69           14.8862     6.7582    -7.6112 H       
  70 H70           16.4559     3.8752    -2.3878 H       
  71 H71           15.7529     6.9731     0.4686 H       
  72 H72           14.0581     7.9660    -1.0104 H       
  73 H73           13.5553     6.9317    -3.1835 H       
  74 H74            7.1866     1.3605     1.4688 H       
  75 H75            8.0189    -0.2126     1.4969 H       
  76 H76            7.7660    -0.3905    -0.9634 H       
  77 H77            6.9336     1.1826    -0.9915 H       
  78 H78            8.9531     2.2681    -0.0471 H       
  79 H79            9.7855     0.6950    -0.0190 H       
  80 H80            8.7002     2.0902    -2.5074 H       
  81 H81            9.5325     0.5171    -2.4793 H       
  82 H82           12.1799    -2.6746     4.3492 H       
  83 H83           10.9669    -2.5005     5.6401 H       
  84 H84           11.5232    -4.1200     5.1540 H       
@<TRIPOS>BOND
   1    1    2 ar
   2    1    6 ar
   3    1   55 1
   4    2    3 ar
   5    2   56 1
   6    3    4 ar
   7    3   57 1
   8    4    5 ar
   9    4    7 1
  10    5    6 ar
  11    5   10 1
  12    6   58 1
  13    7    8 2
  14    8    9 1
  15    8   11 1
  16    9   10 am
  17    9   41 1
  18   10   40 2
  19   11   12 ar
  20   11   16 ar
  21   12   13 ar
  22   12   59 1
  23   13   14 ar
  24   13   45 1
  25   14   15 ar
  26   14   60 1
  27   15   16 ar
  28   15   61 1
  29   16   62 1
  30   17   18 1
  31   17   19 1
  32   17   44 1
  33   18   21 2
  34   18   63 1
  35   19   20 2
  36   20   21 1
  37   21   22 1
  38   22   23 1
  39   22   64 1
  40   22   65 1
  41   23   24 1
  42   23   25 am
  43   24   33 1
  44   24   28 2
  45   25   26 1
  46   25   39 2
  47   26   27 ar
  48   26   29 ar
  49   27   28 1
  50   27   32 ar
  51   29   30 ar
  52   29   66 1
  53   30   31 ar
  54   30   67 1
  55   31   32 ar
  56   31   68 1
  57   32   69 1
  58   33   34 ar
  59   33   38 ar
  60   34   35 ar
  61   34   70 1
  62   35   36 ar
  63   35   49 1
  64   36   37 ar
  65   36   71 1
  66   37   38 ar
  67   37   72 1
  68   38   73 1
  69   41   42 1
  70   41   74 1
  71   41   75 1
  72   42   43 1
  73   42   76 1
  74   42   77 1
  75   43   44 1
  76   43   78 1
  77   43   79 1
  78   44   80 1
  79   44   81 1
  80   45   46 1
  81   46   47 2
  82   46   48 1
  83   48   82 1
  84   48   83 1
  85   48   84 1
  86   49   50 1
  87   50   51 2
  88   50   52 2
  89   50   53 1
  90   53   54 1

#	End of record

