#	Name: ASD01912336
#	Creating user name:	WinNT
#	Creation time:	15. 06. 2019 19:59

#	Modifying user name:	WinNT
#	Modification time:	15. 06. 2019 19:59

#	Program:	/corina/corina34_cracker 3.40 0067  02.08.2006

@<TRIPOS>MOLECULE
ASD01912336
  49   50    0    0    0
SMALL
NO_CHARGES


@<TRIPOS>ATOM
   1 C1            -0.0169     1.3937     0.0097 C.ar    
   2 C2             0.0021    -0.0041     0.0020 C.ar    
   3 C3             1.2200    -0.6586    -0.0132 C.ar    
   4 C4             2.3820     0.1017    -0.0202 C.ar    
   5 C5             2.2917     1.4816    -0.0120 C.ar    
   6 N6             1.1202     2.0835     0.0026 N.ar    
   7 C7             3.5515     2.3086    -0.0196 C.3     
   8 C8            -1.2694     2.0877     0.0194 C.1     
   9 C9            -2.2963     2.6567     0.0274 C.1     
  10 C10           -3.5488     3.3508     0.0371 C.2     
  11 N11           -3.6111     7.1939     1.1690 N.am    
  12 C12           -4.8645     6.4304     1.2214 C.3     
  13 C13           -4.8852     5.4347     0.0547 C.3     
  14 C14           -3.5723     4.6828     0.0444 C.2     
  15 C15           -2.2866     5.4804     0.0422 C.3     
  16 C16           -2.3311     6.4750     1.2091 C.3     
  17 C17           -3.6352     8.5385     1.0796 C.2     
  18 C18           -2.3438     9.3134     1.0265 C.3     
  19 C19           -2.6503    10.8091     0.9274 C.3     
  20 C20           -3.4575    11.2465     2.1513 C.3     
  21 O21           -4.6962     9.1248     1.0420 O.2     
  22 C22           -1.3391    11.5959     0.8734 C.3     
  23 C23           -3.4606    11.0807    -0.3417 C.3     
  24 H24           -0.9211    -0.5645     0.0082 H       
  25 H25            1.2665    -1.7376    -0.0191 H       
  26 H26            3.3483    -0.3807    -0.0317 H       
  27 H27            3.8454     2.5135    -1.0490 H       
  28 H28            3.3719     3.2492     0.5010 H       
  29 H29            4.3485     1.7612     0.4837 H       
  30 H30           -4.4745     2.7944     0.0384 H       
  31 H31           -4.9231     5.8885     2.1653 H       
  32 H32           -5.7111     7.1115     1.1355 H       
  33 H33           -5.7089     4.7329     0.1857 H       
  34 H34           -5.0071     5.9731    -0.8852 H       
  35 H35           -1.4375     4.8082     0.1651 H       
  36 H36           -2.1928     6.0227    -0.8988 H       
  37 H37           -1.5099     7.1856     1.1152 H       
  38 H38           -2.2443     5.9358     2.1524 H       
  39 H39           -1.7665     9.1199     1.9306 H       
  40 H40           -1.7687     9.0018     0.1545 H       
  41 H41           -2.8802    11.0530     3.0554 H       
  42 H42           -3.6758    12.3121     2.0807 H       
  43 H43           -4.3915    10.6860     2.1898 H       
  44 H44           -0.7641    11.2843     0.0015 H       
  45 H45           -1.5575    12.6614     0.8028 H       
  46 H46           -0.7618    11.4024     1.7775 H       
  47 H47           -4.3947    10.5202    -0.3032 H       
  48 H48           -3.6789    12.1463    -0.4123 H       
  49 H49           -2.8855    10.7691    -1.2136 H       
@<TRIPOS>BOND
   1    1    2 ar
   2    1    6 ar
   3    1    8 1
   4    2    3 ar
   5    2   24 1
   6    3    4 ar
   7    3   25 1
   8    4    5 ar
   9    4   26 1
  10    5    6 ar
  11    5    7 1
  12    7   27 1
  13    7   28 1
  14    7   29 1
  15    8    9 3
  16    9   10 1
  17   10   14 2
  18   10   30 1
  19   11   12 1
  20   11   16 1
  21   11   17 am
  22   12   13 1
  23   12   31 1
  24   12   32 1
  25   13   14 1
  26   13   33 1
  27   13   34 1
  28   14   15 1
  29   15   16 1
  30   15   35 1
  31   15   36 1
  32   16   37 1
  33   16   38 1
  34   17   18 1
  35   17   21 2
  36   18   19 1
  37   18   39 1
  38   18   40 1
  39   19   20 1
  40   19   22 1
  41   19   23 1
  42   20   41 1
  43   20   42 1
  44   20   43 1
  45   22   44 1
  46   22   45 1
  47   22   46 1
  48   23   47 1
  49   23   48 1
  50   23   49 1

#	End of record

