#	Name: ASD03430924
#	Creating user name:	WinNT
#	Creation time:	15. 06. 2019 20:41

#	Modifying user name:	WinNT
#	Modification time:	15. 06. 2019 20:41

#	Program:	/corina/corina34_cracker 3.40 0067  02.08.2006

@<TRIPOS>MOLECULE
ASD03430924
  48   53    0    0    0
SMALL
NO_CHARGES


@<TRIPOS>ATOM
   1 O1             0.3923     1.5704    -0.0264 O.3     
   2 C2             0.3630     0.1348     0.0854 C.3     
   3 C3             1.5699    -0.2895    -0.7634 C.3     
   4 C4             2.4560     0.9265    -0.7342 C.ar    
   5 C5             1.6699     1.9785    -0.2735 C.ar    
   6 C6             2.2439     3.2378    -0.1308 C.ar    
   7 C7             3.5758     3.4429    -0.4493 C.ar    
   8 C8             4.3497     2.3861    -0.9146 C.ar    
   9 C9             3.7812     1.1297    -1.0571 C.ar    
  10 N10            2.2205    -2.4441    -1.1628 N.am    
  11 C11            2.2494    -1.5035    -0.1978 C.2     
  12 C12            1.1660    -0.6725    -2.1561 C.ar    
  13 C13            0.5185    -0.0107    -3.1749 C.ar    
  14 C14            0.2814    -0.6525    -4.3779 C.ar    
  15 C15            0.6970    -1.9593    -4.5543 C.ar    
  16 C16            1.3480    -2.6263    -3.5371 C.ar    
  17 C17            1.5913    -1.9883    -2.3237 C.ar    
  18 O18            2.7302    -1.6154     0.9100 O.2     
  19 C19            2.7836    -3.7881    -1.0118 C.3     
  20 C20            1.6967    -4.7439    -0.5922 C.2     
  21 O21            5.6628     2.5666    -1.2265 O.3     
  22 C22            6.1005     3.9165    -1.4162 C.3     
  23 C23            5.5414     4.7688    -0.2689 C.3     
  24 O24            4.1126     4.6859    -0.3041 O.3     
  25 N25            1.4116    -5.1036     0.6791 N.pl3   
  26 C26            0.3635    -5.9823     0.6259 C.2     
  27 C27            0.0440    -6.1294    -0.6754 C.2     
  28 N28            0.8714    -5.3569    -1.3956 N.2     
  29 C29            2.0968    -4.6400     1.8882 C.3     
  30 Cl30          -0.4061    -6.7584     1.9746 Cl      
  31 H31            0.4909    -0.1754     1.1225 H       
  32 H32           -0.5618    -0.2669    -0.3287 H       
  33 H33            1.6463     4.0615     0.2307 H       
  34 H34            4.3783     0.3072    -1.4221 H       
  35 H35            0.1950     1.0101    -3.0351 H       
  36 H36           -0.2274    -0.1338    -5.1769 H       
  37 H37            0.5108    -2.4604    -5.4927 H       
  38 H38            1.6694    -3.6471    -3.6822 H       
  39 H39            3.2068    -4.1137    -1.9620 H       
  40 H40            3.5656    -3.7713    -0.2526 H       
  41 H41            7.1898     3.9546    -1.4053 H       
  42 H42            5.7285     4.2932    -2.3690 H       
  43 H43            5.9084     4.3882     0.6843 H       
  44 H44            5.8527     5.8056    -0.3958 H       
  45 H45           -0.7428    -6.7559    -1.0689 H       
  46 H46            1.6454    -3.7074     2.2267 H       
  47 H47            2.0037    -5.3936     2.6702 H       
  48 H48            3.1512    -4.4740     1.6672 H       
@<TRIPOS>BOND
   1    1    2 1
   2    1    5 1
   3    2    3 1
   4    2   31 1
   5    2   32 1
   6    3    4 1
   7    3   11 1
   8    3   12 1
   9    4    5 ar
  10    4    9 ar
  11    5    6 ar
  12    6    7 ar
  13    6   33 1
  14    7    8 ar
  15    7   24 1
  16    8    9 ar
  17    8   21 1
  18    9   34 1
  19   10   11 am
  20   10   17 1
  21   10   19 1
  22   11   18 2
  23   12   13 ar
  24   12   17 ar
  25   13   14 ar
  26   13   35 1
  27   14   15 ar
  28   14   36 1
  29   15   16 ar
  30   15   37 1
  31   16   17 ar
  32   16   38 1
  33   19   20 1
  34   19   39 1
  35   19   40 1
  36   20   25 1
  37   20   28 2
  38   21   22 1
  39   22   23 1
  40   22   41 1
  41   22   42 1
  42   23   24 1
  43   23   43 1
  44   23   44 1
  45   25   26 1
  46   25   29 1
  47   26   27 2
  48   26   30 1
  49   27   28 1
  50   27   45 1
  51   29   46 1
  52   29   47 1
  53   29   48 1

#	End of record

