#	Name: ASD04880718
#	Creating user name:	WinNT
#	Creation time:	15. 06. 2019 20:53

#	Modifying user name:	WinNT
#	Modification time:	15. 06. 2019 20:53

#	Program:	/corina/corina34_cracker 3.40 0067  02.08.2006

@<TRIPOS>MOLECULE
ASD04880718
  78   82    0    0    0
SMALL
NO_CHARGES


@<TRIPOS>ATOM
   1 C1             0.0065     1.3667     0.0045 C.ar    
   2 C2            -1.1980     2.0437     0.0644 C.ar    
   3 C3            -1.2166     3.4255     0.1071 C.ar    
   4 C4            -0.0314     4.1346     0.0899 C.ar    
   5 C5             1.1800     3.4579     0.0298 C.ar    
   6 C6             1.1951     2.0693    -0.0129 C.ar    
   7 C7            -0.0527     5.6408     0.1360 C.3     
   8 N8             2.3804     4.1718     0.0118 N.3     
   9 C9             3.1825     3.8837     1.2090 C.3     
  10 C10            3.1440     3.8875    -1.2112 C.3     
  11 C11            4.4105     4.7466    -1.2299 C.3     
  12 N12            5.2126     4.4585    -0.0327 N.3     
  13 C13            4.4490     4.7428     1.1902 C.3     
  14 C14            6.4093     5.1702    -0.0506 C.ar    
  15 C15            6.6408     6.1617     0.8950 C.ar    
  16 C16            7.8244     6.8689     0.8810 C.ar    
  17 C17            8.7954     6.5891    -0.0864 C.ar    
  18 C18            8.5634     5.5917    -1.0384 C.ar    
  19 C19            7.3781     4.8821    -1.0164 C.ar    
  20 N20            7.1447     3.8778    -1.9655 N.am    
  21 C21            7.6264     4.0087    -3.2174 C.2     
  22 C22            7.4905     2.9060    -4.1743 C.2     
  23 O23            8.1743     5.0422    -3.5537 O.2     
  24 C24            6.9684     0.9569    -5.0357 C.2     
  25 C25            7.5959     1.6551    -6.0077 C.2     
  26 C26            7.9361     2.9041    -5.4651 C.2     
  27 O27            6.9084     1.7133    -3.9320 O.3     
  28 C28           10.0612     7.3453    -0.1025 C.2     
  29 Cl29           8.1094     8.1072     2.0638 Cl      
  30 O30           10.2617     8.2128     0.7257 O.2     
  31 N31           10.9959     7.0748    -1.0350 N.am    
  32 C32           12.2535     7.8261    -1.0510 C.3     
  33 C33           13.1184     7.3338    -2.1827 C.ar    
  34 C34           13.0215     7.9188    -3.4317 C.ar    
  35 C35           13.8147     7.4673    -4.4696 C.ar    
  36 C36           14.7053     6.4309    -4.2588 C.ar    
  37 C37           14.8028     5.8468    -3.0100 C.ar    
  38 C38           14.0124     6.3013    -1.9706 C.ar    
  39 C39           13.7084     8.1042    -5.8312 C.3     
  40 N40           14.6535     9.2251    -5.9226 N.3     
  41 C41           14.7515     9.7200    -7.3023 C.3     
  42 C42           14.2790    10.3060    -5.0010 C.3     
  43 H43            0.0177     0.2871    -0.0242 H       
  44 H44           -2.1262     1.4917     0.0776 H       
  45 H45           -2.1590     3.9511     0.1535 H       
  46 H46            2.1354     1.5401    -0.0594 H       
  47 H47           -0.0245     5.9730     1.1737 H       
  48 H48            0.8150     6.0328    -0.3947 H       
  49 H49           -0.9639     6.0059    -0.3378 H       
  50 H50            2.6000     4.1140     2.1011 H       
  51 H51            3.4584     2.8292     1.2167 H       
  52 H52            3.4195     2.8331    -1.2309 H       
  53 H53            2.5335     4.1206    -2.0835 H       
  54 H54            4.9930     4.5163    -2.1220 H       
  55 H55            4.1345     5.8011    -1.2376 H       
  56 H56            4.1734     5.7972     1.2100 H       
  57 H57            5.0595     4.5097     2.0626 H       
  58 H58            5.8920     6.3791     1.6423 H       
  59 H59            9.3110     5.3733    -1.7865 H       
  60 H60            6.6365     3.0885    -1.7215 H       
  61 H61            6.5794    -0.0460    -5.1328 H       
  62 H62            7.7981     1.3157    -7.0128 H       
  63 H63            8.4503     3.7081    -5.9707 H       
  64 H64           10.8359     6.3828    -1.6956 H       
  65 H65           12.0418     8.8862    -1.1901 H       
  66 H66           12.7755     7.6809    -0.1052 H       
  67 H67           12.3259     8.7283    -3.5963 H       
  68 H68           15.3246     6.0777    -5.0700 H       
  69 H69           15.4982     5.0370    -2.8454 H       
  70 H70           14.0913     5.8473    -0.9938 H       
  71 H71           13.9453     7.3658    -6.5973 H       
  72 H72           12.6934     8.4716    -5.9823 H       
  73 H73           13.7716    10.0609    -7.6364 H       
  74 H74           15.4577    10.5494    -7.3415 H       
  75 H75           15.0980     8.9168    -7.9526 H       
  76 H76           14.2820     9.9288    -3.9783 H       
  77 H77           14.9952    11.1230    -5.0890 H       
  78 H78           13.2820    10.6682    -5.2518 H       
@<TRIPOS>BOND
   1    1    2 ar
   2    1    6 ar
   3    1   43 1
   4    2    3 ar
   5    2   44 1
   6    3    4 ar
   7    3   45 1
   8    4    5 ar
   9    4    7 1
  10    5    6 ar
  11    5    8 1
  12    6   46 1
  13    7   47 1
  14    7   48 1
  15    7   49 1
  16    8   10 1
  17    8    9 1
  18    9   13 1
  19    9   50 1
  20    9   51 1
  21   10   11 1
  22   10   52 1
  23   10   53 1
  24   11   12 1
  25   11   54 1
  26   11   55 1
  27   12   13 1
  28   12   14 1
  29   13   56 1
  30   13   57 1
  31   14   15 ar
  32   14   19 ar
  33   15   16 ar
  34   15   58 1
  35   16   17 ar
  36   16   29 1
  37   17   18 ar
  38   17   28 1
  39   18   19 ar
  40   18   59 1
  41   19   20 1
  42   20   21 am
  43   20   60 1
  44   21   22 1
  45   21   23 2
  46   22   27 1
  47   22   26 2
  48   24   25 2
  49   24   27 1
  50   24   61 1
  51   25   26 1
  52   25   62 1
  53   26   63 1
  54   28   30 2
  55   28   31 am
  56   31   32 1
  57   31   64 1
  58   32   33 1
  59   32   65 1
  60   32   66 1
  61   33   34 ar
  62   33   38 ar
  63   34   35 ar
  64   34   67 1
  65   35   36 ar
  66   35   39 1
  67   36   37 ar
  68   36   68 1
  69   37   38 ar
  70   37   69 1
  71   38   70 1
  72   39   40 1
  73   39   71 1
  74   39   72 1
  75   40   41 1
  76   40   42 1
  77   41   73 1
  78   41   74 1
  79   41   75 1
  80   42   76 1
  81   42   77 1
  82   42   78 1

#	End of record

