#	Name: ASD00170433
#	Creating user name:	WinNT
#	Creation time:	15. 06. 2019 18:32

#	Modifying user name:	WinNT
#	Modification time:	15. 06. 2019 18:32

#	Program:	/corina/corina34_cracker 3.40 0067  02.08.2006

@<TRIPOS>MOLECULE
ASD00170433
  81   85    0    0    0
SMALL
NO_CHARGES


@<TRIPOS>ATOM
   1 C1            -0.8360     0.9079    -0.4263 C.2     
   2 C2            -0.7818    -0.4303    -0.1038 C.2     
   3 C3            -2.0645    -0.9633     0.2913 C.2     
   4 C4            -3.0417    -0.0489     0.2633 C.2     
   5 S5            -2.4195     1.5108    -0.2449 S.3     
   6 C6            -2.2804    -2.3996     0.6934 C.3     
   7 N7             0.2454     1.6589    -0.8346 N.pl3   
   8 C8             0.4447    -1.2268    -0.1562 C.2     
   9 C9             0.7851    -1.9804    -1.3820 C.ar    
  10 O10            1.1850    -1.2689     0.8098 O.2     
  11 C11            2.0057    -2.6518    -1.4756 C.ar    
  12 C12            2.3175    -3.3529    -2.6214 C.ar    
  13 C13            1.4229    -3.3915    -3.6782 C.ar    
  14 C14            0.2105    -2.7273    -3.5911 C.ar    
  15 C15           -0.1152    -2.0281    -2.4480 C.ar    
  16 Cl16           1.8231    -4.2753    -5.1178 Cl      
  17 N17           -1.4280    -2.7187     1.8465 N.3     
  18 C18           -4.4515    -0.3155     0.6180 C.ar    
  19 C19           -2.0188    -2.2145     3.0934 C.3     
  20 C20           -1.1749    -4.1633     1.9303 C.3     
  21 C21           -1.9120    -0.6886     3.1278 C.3     
  22 C22           -2.5273    -0.1635     4.4265 C.3     
  23 C23           -3.9997    -0.5734     4.4955 C.3     
  24 C24           -4.1065    -2.0993     4.4611 C.3     
  25 C25           -3.4912    -2.6244     3.1624 C.3     
  26 C26           -0.3860    -4.6151     0.6997 C.3     
  27 C27           -0.1224    -6.1197     0.7870 C.3     
  28 C28            0.6852    -6.4235     2.0505 C.3     
  29 C29           -0.1038    -5.9717     3.2810 C.3     
  30 C30           -0.3673    -4.4671     3.1937 C.3     
  31 C31           -5.1283     0.5411     1.4883 C.ar    
  32 C32           -6.4434     0.2888     1.8166 C.ar    
  33 C33           -7.0946    -0.8153     1.2832 C.ar    
  34 C34           -6.4251    -1.6699     0.4177 C.ar    
  35 C35           -5.1118    -1.4213     0.0793 C.ar    
  36 O36           -8.3910    -1.0604     1.6094 O.3     
  37 C37           -9.0002    -2.2134     1.0249 C.3     
  38 C38          -10.4486    -2.3239     1.5056 C.3     
  39 O39          -11.1991    -1.2107     1.0162 O.3     
  40 C40          -12.5727    -1.2174     1.4101 C.3     
  41 H41           -3.3262    -2.5483     0.9624 H       
  42 H42           -2.0233    -3.0529    -0.1404 H       
  43 H43            1.1331     1.2678    -0.8405 H       
  44 H44            0.1187     2.5785    -1.1161 H       
  45 H45            2.7043    -2.6219    -0.6526 H       
  46 H46            3.2614    -3.8727    -2.6950 H       
  47 H47           -0.4830    -2.7610    -4.4183 H       
  48 H48           -1.0609    -1.5109    -2.3811 H       
  49 H49           -1.4841    -2.6354     3.9449 H       
  50 H50           -2.1246    -4.6969     1.9690 H       
  51 H51           -0.8630    -0.3966     3.0787 H       
  52 H52           -2.4466    -0.2677     2.2763 H       
  53 H53           -1.9927    -0.5844     5.2780 H       
  54 H54           -2.4512     0.9236     4.4510 H       
  55 H55           -4.4381    -0.1993     5.4207 H       
  56 H56           -4.5343    -0.1525     3.6440 H       
  57 H57           -3.5719    -2.5202     5.3126 H       
  58 H58           -5.1555    -2.3914     4.5102 H       
  59 H59           -4.0258    -2.2035     2.3108 H       
  60 H60           -3.5673    -3.7115     3.1378 H       
  61 H61           -0.9613    -4.3986    -0.2004 H       
  62 H62            0.5637    -4.0815     0.6610 H       
  63 H63           -1.0721    -6.6533     0.8257 H       
  64 H64            0.4397    -6.4415    -0.0897 H       
  65 H65            0.8730    -7.4954     2.1126 H       
  66 H66            1.6349    -5.8899     2.0117 H       
  67 H67           -1.0534    -6.5053     3.3198 H       
  68 H68            0.4716    -6.1882     4.1811 H       
  69 H69            0.5823    -3.9335     3.1550 H       
  70 H70           -0.9294    -4.1453     4.0704 H       
  71 H71           -4.6223     1.3999     1.9039 H       
  72 H72           -6.9676     0.9507     2.4900 H       
  73 H73           -6.9351    -2.5278     0.0052 H       
  74 H74           -4.5918    -2.0864    -0.5943 H       
  75 H75           -8.9838    -2.1219    -0.0611 H       
  76 H76           -8.4495    -3.1056     1.3228 H       
  77 H77          -10.8859    -3.2496     1.1315 H       
  78 H78          -10.4706    -2.3260     2.5954 H       
  79 H79          -13.0541    -2.1202     1.0341 H       
  80 H80          -12.6388    -1.1966     2.4979 H       
  81 H81          -13.0729    -0.3407     0.9989 H       
@<TRIPOS>BOND
   1    1    2 2
   2    1    7 1
   3    1    5 1
   4    2    3 1
   5    2    8 1
   6    3    4 2
   7    3    6 1
   8    4    5 1
   9    4   18 1
  10    6   17 1
  11    6   41 1
  12    6   42 1
  13    7   43 1
  14    7   44 1
  15    8    9 1
  16    8   10 2
  17    9   11 ar
  18    9   15 ar
  19   11   12 ar
  20   11   45 1
  21   12   13 ar
  22   12   46 1
  23   13   14 ar
  24   13   16 1
  25   14   15 ar
  26   14   47 1
  27   15   48 1
  28   17   19 1
  29   17   20 1
  30   18   31 ar
  31   18   35 ar
  32   19   21 1
  33   19   25 1
  34   19   49 1
  35   20   26 1
  36   20   30 1
  37   20   50 1
  38   21   22 1
  39   21   51 1
  40   21   52 1
  41   22   23 1
  42   22   53 1
  43   22   54 1
  44   23   24 1
  45   23   55 1
  46   23   56 1
  47   24   25 1
  48   24   57 1
  49   24   58 1
  50   25   59 1
  51   25   60 1
  52   26   27 1
  53   26   61 1
  54   26   62 1
  55   27   28 1
  56   27   63 1
  57   27   64 1
  58   28   29 1
  59   28   65 1
  60   28   66 1
  61   29   30 1
  62   29   67 1
  63   29   68 1
  64   30   69 1
  65   30   70 1
  66   31   32 ar
  67   31   71 1
  68   32   33 ar
  69   32   72 1
  70   33   34 ar
  71   33   36 1
  72   34   35 ar
  73   34   73 1
  74   35   74 1
  75   36   37 1
  76   37   38 1
  77   37   75 1
  78   37   76 1
  79   38   39 1
  80   38   77 1
  81   38   78 1
  82   39   40 1
  83   40   79 1
  84   40   80 1
  85   40   81 1

#	End of record

