#	Name: ASD07932006
#	Creating user name:	WinNT
#	Creation time:	15. 06. 2019 21:14

#	Modifying user name:	WinNT
#	Modification time:	15. 06. 2019 21:14

#	Program:	/corina/corina34_cracker 3.40 0067  02.08.2006

@<TRIPOS>MOLECULE
ASD07932006
  49   50    0    0    0
SMALL
NO_CHARGES


@<TRIPOS>ATOM
   1 N1            -1.4356    -1.1618     2.3443 N.pl3   
   2 C2             4.1374    -6.6314     1.3638 C.3     
   3 N3             2.9563    -3.2527     1.2977 N.pl3   
   4 C4             2.5441    -2.8052    -0.0368 C.3     
   5 C5             2.1077    -4.0225    -0.8645 C.3     
   6 N6             3.8865    -5.3359     0.7275 N.am    
   7 C7             3.9746    -4.1568     1.4316 C.2     
   8 C8             1.3917    -1.8422     0.0886 C.ar    
   9 C9             3.7189    -2.1111    -0.7288 C.3     
  10 C10            1.2063    -0.8564    -0.8664 C.ar    
  11 C11            0.5161    -1.9474     1.1533 C.ar    
  12 C12           -0.5472    -1.0581     1.2673 C.ar    
  13 C13           -0.7263    -0.0682     0.3116 C.ar    
  14 C14            0.1484     0.0291    -0.7540 C.ar    
  15 F15            2.0599    -0.7583    -1.9090 F       
  16 F16            0.6934    -2.9124     2.0820 F       
  17 N17            5.0126    -3.9048     2.2140 N.2     
  18 O18            6.1351    -2.4943     3.6869 O.3     
  19 C19            6.1383    -1.2434     4.3778 C.3     
  20 C20            4.9094    -1.1590     5.2853 C.3     
  21 C21            7.4070    -1.1323     5.2256 C.3     
  22 C22            6.1017    -0.0997     3.3622 C.3     
  23 C23            5.0771    -2.7511     2.8895 C.2     
  24 O24            4.1814    -1.9334     2.7845 O.2     
  25 S25            3.4810    -5.2179    -0.8844 S.o2    
  26 O26            3.0158    -6.5149    -1.2321 O.2     
  27 O27            4.6304    -4.6555    -1.5022 O.2     
  28 H28           -1.3098    -1.8543     3.0117 H       
  29 H29           -2.1746    -0.5387     2.4252 H       
  30 H30            4.3853    -6.4784     2.4142 H       
  31 H31            3.2448    -7.2525     1.2880 H       
  32 H32            4.9688    -7.1274     0.8628 H       
  33 H33            2.5098    -2.9047     2.0854 H       
  34 H34            1.2285    -4.4798    -0.4106 H       
  35 H35            1.8764    -3.7110    -1.8831 H       
  36 H36            4.6184    -2.7156    -0.6114 H       
  37 H37            3.4971    -1.9920    -1.7894 H       
  38 H38            3.8784    -1.1313    -0.2787 H       
  39 H39           -1.5513     0.6234     0.3982 H       
  40 H40            0.0090     0.7999    -1.4976 H       
  41 H41            4.9354    -1.9738     6.0089 H       
  42 H42            4.9118    -0.2049     5.8124 H       
  43 H43            4.0055    -1.2382     4.6813 H       
  44 H44            8.2825    -1.1924     4.5791 H       
  45 H45            7.4094    -0.1782     5.7526 H       
  46 H46            7.4330    -1.9471     5.9492 H       
  47 H47            5.1979    -0.1789     2.7582 H       
  48 H48            6.1041     0.8544     3.8892 H       
  49 H49            6.9772    -0.1598     2.7156 H       
@<TRIPOS>BOND
   1    1   12 1
   2    1   28 1
   3    1   29 1
   4    2    6 1
   5    2   30 1
   6    2   31 1
   7    2   32 1
   8    3    4 1
   9    3    7 1
  10    3   33 1
  11    4    5 1
  12    4    8 1
  13    4    9 1
  14    5   25 1
  15    5   34 1
  16    5   35 1
  17    6    7 1
  18    6   25 am
  19    7   17 2
  20    8   11 ar
  21    8   10 ar
  22    9   36 1
  23    9   37 1
  24    9   38 1
  25   10   15 1
  26   10   14 ar
  27   11   12 ar
  28   11   16 1
  29   12   13 ar
  30   13   14 ar
  31   13   39 1
  32   14   40 1
  33   17   23 1
  34   18   19 1
  35   18   23 1
  36   19   20 1
  37   19   21 1
  38   19   22 1
  39   20   41 1
  40   20   42 1
  41   20   43 1
  42   21   44 1
  43   21   45 1
  44   21   46 1
  45   22   47 1
  46   22   48 1
  47   22   49 1
  48   23   24 2
  49   25   26 2
  50   25   27 2

#	End of record

