#	Name: ASD00069096
#	Creating user name:	WinNT
#	Creation time:	15. 06. 2019 18:29

#	Modifying user name:	WinNT
#	Modification time:	15. 06. 2019 18:29

#	Program:	/corina/corina34_cracker 3.40 0067  02.08.2006

@<TRIPOS>MOLECULE
ASD00069096
  53   58    0    0    0
SMALL
NO_CHARGES


@<TRIPOS>ATOM
   1 C1             0.7269     1.7975    -0.0697 C.3     
   2 C2             1.6343     0.5711    -0.1846 C.3     
   3 C3             2.1964     1.8915     0.3458 C.3     
   4 C4             0.3199     2.4842    -1.3479 C.2     
   5 O5             0.7108     2.0605    -2.4151 O.2     
   6 N6            -0.4784     3.5693    -1.3053 N.am    
   7 N7            -1.6512     6.5378    -5.8130 N.pl3   
   8 N8            -1.6685     7.8172    -5.2489 N.2     
   9 C9            -1.4111     7.7429    -3.9631 C.2     
  10 C10           -1.2066     6.3268    -3.6347 C.ar    
  11 C11           -0.9087     5.6403    -2.4556 C.ar    
  12 C12           -0.7776     4.2654    -2.4835 C.ar    
  13 C13           -0.9415     3.5673    -3.6801 C.ar    
  14 C14           -1.2324     4.2281    -4.8384 C.ar    
  15 C15           -1.3696     5.6146    -4.8361 C.ar    
  16 C16           -1.9006     6.2300    -7.2234 C.3     
  17 C17           -3.3989     6.3489    -7.5147 C.3     
  18 C18           -3.6442     6.0848    -9.0035 C.3     
  19 C19           -2.8114     7.0699    -9.8295 C.3     
  20 C20           -1.3358     6.9231    -9.4488 C.3     
  21 O21           -1.1821     7.1511    -8.0465 O.3     
  22 C22           -1.3396     8.8765    -3.0205 C.2     
  23 N23           -1.5343    10.1910    -3.3526 N.pl3   
  24 C24           -1.3830    10.9315    -2.1955 C.ar    
  25 C25           -1.0932    10.0090    -1.1742 C.ar    
  26 N26           -1.0855     8.7763    -1.7375 N.2     
  27 C27           -0.8852    10.4699     0.1297 C.ar    
  28 C28           -0.9659    11.8170     0.3995 C.ar    
  29 C29           -1.2521    12.7225    -0.6121 C.ar    
  30 C30           -1.4601    12.2855    -1.9037 C.ar    
  31 H31           -0.0213     1.7976     0.7230 H       
  32 H32            1.4831    -0.2358     0.5325 H       
  33 H33            1.9369     0.2608    -1.1848 H       
  34 H34            2.8688     2.4500    -0.3054 H       
  35 H35            2.4150     1.9534     1.4119 H       
  36 H36           -0.8458     3.8682    -0.4588 H       
  37 H37           -0.7812     6.1803    -1.5290 H       
  38 H38           -0.8367     2.4924    -3.6901 H       
  39 H39           -1.3560     3.6755    -5.7581 H       
  40 H40           -1.5681     5.2144    -7.4382 H       
  41 H41           -3.9448     5.6165    -6.9200 H       
  42 H42           -3.7406     7.3526    -7.2617 H       
  43 H43           -3.3484     5.0641    -9.2463 H       
  44 H44           -4.7016     6.2228    -9.2289 H       
  45 H45           -2.9372     6.8531   -10.8903 H       
  46 H46           -3.1412     8.0881    -9.6233 H       
  47 H47           -0.9958     5.9167    -9.6929 H       
  48 H48           -0.7434     7.6514   -10.0026 H       
  49 H49           -1.7400    10.5374    -4.2350 H       
  50 H50           -0.6624     9.7710     0.9224 H       
  51 H51           -0.8055    12.1722     1.4067 H       
  52 H52           -1.3128    13.7769    -0.3865 H       
  53 H53           -1.6821    12.9959    -2.6862 H       
@<TRIPOS>BOND
   1    1    2 1
   2    1    3 1
   3    1    4 1
   4    1   31 1
   5    2    3 1
   6    2   32 1
   7    2   33 1
   8    3   34 1
   9    3   35 1
  10    4    5 2
  11    4    6 am
  12    6   12 1
  13    6   36 1
  14    7    8 1
  15    7   15 1
  16    7   16 1
  17    8    9 2
  18    9   10 1
  19    9   22 1
  20   10   11 ar
  21   10   15 ar
  22   11   12 ar
  23   11   37 1
  24   12   13 ar
  25   13   14 ar
  26   13   38 1
  27   14   15 ar
  28   14   39 1
  29   16   17 1
  30   16   21 1
  31   16   40 1
  32   17   18 1
  33   17   41 1
  34   17   42 1
  35   18   19 1
  36   18   43 1
  37   18   44 1
  38   19   20 1
  39   19   45 1
  40   19   46 1
  41   20   21 1
  42   20   47 1
  43   20   48 1
  44   22   23 1
  45   22   26 2
  46   23   24 1
  47   23   49 1
  48   24   25 ar
  49   24   30 ar
  50   25   26 1
  51   25   27 ar
  52   27   28 ar
  53   27   50 1
  54   28   29 ar
  55   28   51 1
  56   29   30 ar
  57   29   52 1
  58   30   53 1

#	End of record

