#	Name: ASD08170196
#	Creating user name:	WinNT
#	Creation time:	15. 06. 2019 21:17

#	Modifying user name:	WinNT
#	Modification time:	15. 06. 2019 21:17

#	Program:	/corina/corina34_cracker 3.40 0067  02.08.2006

@<TRIPOS>MOLECULE
ASD08170196
  61   64    0    0    0
SMALL
NO_CHARGES


@<TRIPOS>ATOM
   1 N1            -0.0150     1.2583     0.0090 N.2     
   2 N2             0.0021    -0.0041     0.0020 N.2     
   3 C3             1.1271     1.8769     0.0014 C.2     
   4 S4             2.3826     0.7116    -0.0169 S.3     
   5 C5             1.1681    -0.5677    -0.0121 C.2     
   6 C6             1.4387    -2.0502    -0.0217 C.3     
   7 C7             1.2125    -4.1684     1.2838 C.3     
   8 C8             0.6058    -4.8057     2.5355 C.3     
   9 C9             0.9806    -6.2643     2.5886 C.2     
  10 N10            2.0326    -6.7626     3.1567 N.2     
  11 S11            0.0616    -7.6006     1.8949 S.3     
  12 C12            1.2511    -8.6914     2.4692 C.2     
  13 N13            2.1694    -8.0160     3.0919 N.2     
  14 N14            1.2337   -10.0719     2.3014 N.am    
  15 C15            2.2332   -10.8244     2.8027 C.2     
  16 O16            3.1478   -10.2976     3.4002 O.2     
  17 C17            2.2143   -12.3202     2.6209 C.3     
  18 N18            1.3017     3.2566     0.0071 N.am    
  19 C19            0.2284     4.0717     0.0222 C.2     
  20 O20           -0.8897     3.6019     0.0309 O.2     
  21 C21            0.4176     5.5667     0.0285 C.3     
  22 C22           -0.9288     6.2434     0.0456 C.ar    
  23 C23            3.4349   -12.9206     3.2695 C.ar    
  24 C24           -1.5344     6.5473     1.2505 C.ar    
  25 C25            3.3912   -13.3132     4.5942 C.ar    
  26 C26            4.5109   -13.8638     5.1892 C.ar    
  27 C27            5.6741   -14.0223     4.4593 C.ar    
  28 C28            5.7175   -13.6305     3.1344 C.ar    
  29 C29            4.5965   -13.0839     2.5382 C.ar    
  30 C30           -1.5557     6.5654    -1.1436 C.ar    
  31 C31           -2.7907     7.1861    -1.1280 C.ar    
  32 C32           -3.3991     7.4844     0.0769 C.ar    
  33 C33           -2.7694     7.1680     1.2662 C.ar    
  34 C34            0.8320    -2.6875     1.2300 C.3     
  35 C35            0.8096    -2.6754    -1.2684 C.3     
  36 H36            2.5149    -2.2231    -0.0322 H       
  37 H37            2.2978    -4.2637     1.3173 H       
  38 H38            0.8306    -4.6742     0.3971 H       
  39 H39            0.9878    -4.2999     3.4223 H       
  40 H40           -0.4795    -4.7104     2.5021 H       
  41 H41            0.5022   -10.4932     1.8236 H       
  42 H42            1.3174   -12.7313     3.0842 H       
  43 H43            2.2147   -12.5569     1.5569 H       
  44 H44            2.1959     3.6323     0.0002 H       
  45 H45            0.9819     5.8579     0.9145 H       
  46 H46            0.9641     5.8675    -0.8654 H       
  47 H47           -1.0427     6.2994     2.1796 H       
  48 H48            2.4824   -13.1893     5.1644 H       
  49 H49            4.4770   -14.1698     6.2244 H       
  50 H50            6.5491   -14.4518     4.9244 H       
  51 H51            6.6264   -13.7540     2.5642 H       
  52 H52            4.6304   -12.7778     1.5030 H       
  53 H53           -1.0804     6.3323    -2.0850 H       
  54 H54           -3.2802     7.4383    -2.0571 H       
  55 H55           -4.3638     7.9697     0.0892 H       
  56 H56           -3.2447     7.4011     2.2075 H       
  57 H57            1.2139    -2.1817     2.1167 H       
  58 H58           -0.2533    -2.5922     1.1965 H       
  59 H59            1.0053    -3.7477    -1.2753 H       
  60 H60           -0.2666    -2.5026    -1.2579 H       
  61 H61            1.2418    -2.2214    -2.1601 H       
@<TRIPOS>BOND
   1    1    2 1
   2    1    3 2
   3    2    5 2
   4    3    4 1
   5    3   18 1
   6    4    5 1
   7    5    6 1
   8    6   34 1
   9    6   35 1
  10    6   36 1
  11    7    8 1
  12    7   34 1
  13    7   37 1
  14    7   38 1
  15    8    9 1
  16    8   39 1
  17    8   40 1
  18    9   10 2
  19    9   11 1
  20   10   13 1
  21   11   12 1
  22   12   13 2
  23   12   14 1
  24   14   15 am
  25   14   41 1
  26   15   16 2
  27   15   17 1
  28   17   23 1
  29   17   42 1
  30   17   43 1
  31   18   19 am
  32   18   44 1
  33   19   20 2
  34   19   21 1
  35   21   22 1
  36   21   45 1
  37   21   46 1
  38   22   24 ar
  39   22   30 ar
  40   23   25 ar
  41   23   29 ar
  42   24   33 ar
  43   24   47 1
  44   25   26 ar
  45   25   48 1
  46   26   27 ar
  47   26   49 1
  48   27   28 ar
  49   27   50 1
  50   28   29 ar
  51   28   51 1
  52   29   52 1
  53   30   31 ar
  54   30   53 1
  55   31   32 ar
  56   31   54 1
  57   32   33 ar
  58   32   55 1
  59   33   56 1
  60   34   57 1
  61   34   58 1
  62   35   59 1
  63   35   60 1
  64   35   61 1

#	End of record

