#	Name: ASD08710012
#	Creating user name:	WinNT
#	Creation time:	15. 06. 2019 21:19

#	Modifying user name:	WinNT
#	Modification time:	15. 06. 2019 21:19

#	Program:	/corina/corina34_cracker 3.40 0067  02.08.2006

@<TRIPOS>MOLECULE
ASD08710012
  36   37    0    0    0
SMALL
NO_CHARGES


@<TRIPOS>ATOM
   1 C1             2.1167     1.4612     0.5620 C.ar    
   2 C2             2.2533     0.0979     0.4039 C.ar    
   3 C3             1.0188     2.1191     0.0034 C.ar    
   4 C4             0.0664     1.3907    -0.7119 C.ar    
   5 C5             0.2155     0.0274    -0.8623 C.ar    
   6 C6             1.3056    -0.6180    -0.3063 C.ar    
   7 S7             1.4884    -2.3593    -0.5039 S.o2    
   8 O8             2.6609    -2.7234     0.2115 O.2     
   9 O9             0.2123    -2.9286    -0.2458 O.2     
  10 N10            1.8108    -2.6399    -2.1038 N.am    
  11 C11            3.1892    -2.5965    -2.6151 C.3     
  12 C12            0.7269    -2.9452    -3.0500 C.3     
  13 C13            0.8557    -2.0091    -4.2563 C.3     
  14 N14            2.2121    -2.1138    -4.8107 N.3     
  15 C15            3.2260    -1.6734    -3.8377 C.3     
  16 C16           -0.1645    -2.4089    -5.3241 C.3     
  17 C17           -0.8116    -0.7607    -1.6337 C.3     
  18 C18            0.8702     3.5343     0.1640 C.1     
  19 N19            0.7523     4.6569     0.2914 N.1     
  20 H20            2.8547     2.0180     1.1203 H       
  21 H21            3.1021    -0.4121     0.8350 H       
  22 H22           -0.7852     1.8932    -1.1461 H       
  23 H23            3.8539    -2.2087    -1.8432 H       
  24 H24            3.5044    -3.5992    -2.9038 H       
  25 H25            0.8096    -3.9809    -3.3797 H       
  26 H26           -0.2369    -2.7881    -2.5658 H       
  27 H27            0.6698    -0.9823    -3.9414 H       
  28 H28            2.4027    -3.0534    -5.1250 H       
  29 H29            3.0102    -0.6519    -3.5245 H       
  30 H30            4.2132    -1.7121    -4.2983 H       
  31 H31           -1.1706    -2.3334    -4.9117 H       
  32 H32           -0.0726    -1.7428    -6.1820 H       
  33 H33            0.0228    -3.4353    -5.6394 H       
  34 H34           -0.4753    -0.8865    -2.6628 H       
  35 H35           -0.9410    -1.7393    -1.1715 H       
  36 H36           -1.7615    -0.2262    -1.6246 H       
@<TRIPOS>BOND
   1    1    2 ar
   2    1    3 ar
   3    1   20 1
   4    2    6 ar
   5    2   21 1
   6    3    4 ar
   7    3   18 1
   8    4    5 ar
   9    4   22 1
  10    5    6 ar
  11    5   17 1
  12    6    7 1
  13    7    8 2
  14    7    9 2
  15    7   10 am
  16   10   11 1
  17   10   12 1
  18   11   15 1
  19   11   23 1
  20   11   24 1
  21   12   13 1
  22   12   25 1
  23   12   26 1
  24   13   14 1
  25   13   16 1
  26   13   27 1
  27   14   15 1
  28   14   28 1
  29   15   29 1
  30   15   30 1
  31   16   31 1
  32   16   32 1
  33   16   33 1
  34   17   34 1
  35   17   35 1
  36   17   36 1
  37   18   19 3

#	End of record

