#	Name: ASD03490123
#	Creating user name:	WinNT
#	Creation time:	15. 06. 2019 20:42

#	Modifying user name:	WinNT
#	Modification time:	15. 06. 2019 20:42

#	Program:	/corina/corina34_cracker 3.40 0067  02.08.2006

@<TRIPOS>MOLECULE
ASD03490123
  83   87    0    0    0
SMALL
NO_CHARGES


@<TRIPOS>ATOM
   1 C1            -0.6991     1.2173    -2.0054 C.ar    
   2 N2            -6.9376    -3.8001     1.0094 N.am    
   3 O3            -5.3542    -2.3406     1.5538 O.2     
   4 S4           -10.5622    -5.8841     5.6163 S.o2    
   5 C5            -7.4165    -3.8372     2.3262 C.ar    
   6 N6            -9.3145    -6.0871     4.5466 N.am    
   7 O7             4.6636     4.2980     0.5393 O.3     
   8 C8             2.9643     1.9546    -2.4863 C.3     
   9 N9             1.7221    -0.0660    -1.9015 N.ar    
  10 O10           -8.3666    -5.9898     1.9404 O.3     
  11 C11           -3.2611    -2.8813    -1.7674 C.ar    
  12 N12           -5.3543    -3.0717    -0.5436 N.am    
  13 C13           -2.0818    -2.1535    -2.0539 C.ar    
  14 N14            3.5550     2.4113    -1.2212 N.3     
  15 C15           -1.8507    -0.9190    -1.4006 C.ar    
  16 O16          -11.0985    -7.1896     5.7811 O.2     
  17 C17            1.6805     1.2175    -2.2040 C.ar    
  18 O18           -9.9773    -5.1891     6.7091 O.2     
  19 C19           -3.9360    -1.1589    -0.2153 C.ar    
  20 C20            0.6297    -0.7558    -1.6460 C.ar    
  21 C21           -7.1832    -2.7685     3.1811 C.ar    
  22 C22           -0.6226    -0.1427    -1.6876 C.ar    
  23 C23           -7.6553    -2.8037     4.4797 C.ar    
  24 C24           -7.3936    -7.0362     1.9215 C.3     
  25 C25           -7.3993    -1.6410     5.4037 C.3     
  26 C26           -6.6035    -0.5654     4.6616 C.3     
  27 C27           -8.7343    -1.0568     5.8703 C.3     
  28 C28           -6.6004    -2.1203     6.6173 C.3     
  29 C29           -8.5997    -4.9753     4.0858 C.ar    
  30 C30           -8.3618    -3.9015     4.9334 C.ar    
  31 C31            4.9172     2.9232    -1.4303 C.3     
  32 C32            3.3292     3.8325     0.7585 C.3     
  33 C33          -11.7400    -4.8179     4.7409 C.3     
  34 C34           -5.8636    -3.0453     0.7039 C.2     
  35 C35           -4.1877    -2.3646    -0.8359 C.ar    
  36 C36           -3.4865    -4.1085    -2.4111 C.ar    
  37 C37           -2.5700    -4.5817    -3.3004 C.ar    
  38 C38           -1.4095    -3.8648    -3.5819 C.ar    
  39 C39           -1.1624    -2.6682    -2.9796 C.ar    
  40 C40           -2.7797    -0.4418    -0.4925 C.ar    
  41 C41            2.7086     3.4291    -0.5816 C.3     
  42 C42            5.5157     3.3318    -0.0817 C.3     
  43 C43            0.4779     1.8976    -2.2657 C.ar    
  44 C44           -8.1310    -4.9421     2.7765 C.ar    
  45 H45           -1.6525     1.7226    -2.0508 H       
  46 H46           -7.3792    -4.3176     0.3179 H       
  47 H47           -9.0790    -6.9765     4.2393 H       
  48 H48            2.7569     2.8153    -3.1221 H       
  49 H49            3.6620     1.2880    -2.9933 H       
  50 H50           -5.7988    -3.5823    -1.2383 H       
  51 H51           -4.6476    -0.7675     0.4966 H       
  52 H52            0.7041    -1.8052    -1.4021 H       
  53 H53           -6.6317    -1.9085     2.8311 H       
  54 H54           -7.7024    -7.8068     1.2151 H       
  55 H55           -6.4289    -6.6300     1.6175 H       
  56 H56           -7.3074    -7.4702     2.9177 H       
  57 H57           -7.1727    -0.2239     3.7970 H       
  58 H58           -6.4184     0.2755     5.3299 H       
  59 H59           -5.6525    -0.9816     4.3292 H       
  60 H60           -9.3012    -1.8231     6.3989 H       
  61 H61           -8.5491    -0.2159     6.5386 H       
  62 H62           -9.3035    -0.7154     5.0057 H       
  63 H63           -5.6494    -2.5364     6.2848 H       
  64 H64           -6.4152    -1.2793     7.2856 H       
  65 H65           -7.1673    -2.8865     7.1459 H       
  66 H66           -8.7290    -3.9243     5.9487 H       
  67 H67            5.5332     2.1452    -1.8812 H       
  68 H68            4.8830     3.7897    -2.0908 H       
  69 H69            3.3495     2.9700     1.4246 H       
  70 H70            2.7358     4.6277     1.2097 H       
  71 H71          -12.0655    -5.3112     3.8250 H       
  72 H72          -12.6036    -4.6298     5.3789 H       
  73 H73          -11.2588    -3.8719     4.4927 H       
  74 H74           -4.3820    -4.6747    -2.2017 H       
  75 H75           -2.7454    -5.5261    -3.7940 H       
  76 H76           -0.6977    -4.2610    -4.2910 H       
  77 H77           -0.2585    -2.1227    -3.2072 H       
  78 H78           -2.6035     0.5000     0.0060 H       
  79 H79            2.6391     4.3036    -1.2285 H       
  80 H80            1.7123     3.0202    -0.4130 H       
  81 H81            6.5037     3.7649    -0.2381 H       
  82 H82            5.5995     2.4547     0.5600 H       
  83 H83            0.4573     2.9483    -2.5148 H       
@<TRIPOS>BOND
   1    1   22 ar
   2    1   43 ar
   3    1   45 1
   4    2    5 1
   5    2   34 am
   6    2   46 1
   7    3   34 2
   8    4    6 am
   9    4   16 2
  10    4   18 2
  11    4   33 1
  12    5   21 ar
  13    5   44 ar
  14    6   29 1
  15    6   47 1
  16    7   32 1
  17    7   42 1
  18    8   14 1
  19    8   17 1
  20    8   48 1
  21    8   49 1
  22    9   17 ar
  23    9   20 ar
  24   10   24 1
  25   10   44 1
  26   11   13 ar
  27   11   35 ar
  28   11   36 ar
  29   12   34 am
  30   12   35 1
  31   12   50 1
  32   13   15 ar
  33   13   39 ar
  34   14   31 1
  35   14   41 1
  36   15   22 1
  37   15   40 ar
  38   17   43 ar
  39   19   35 ar
  40   19   40 ar
  41   19   51 1
  42   20   22 ar
  43   20   52 1
  44   21   23 ar
  45   21   53 1
  46   23   25 1
  47   23   30 ar
  48   24   54 1
  49   24   55 1
  50   24   56 1
  51   25   26 1
  52   25   27 1
  53   25   28 1
  54   26   57 1
  55   26   58 1
  56   26   59 1
  57   27   60 1
  58   27   61 1
  59   27   62 1
  60   28   63 1
  61   28   64 1
  62   28   65 1
  63   29   30 ar
  64   29   44 ar
  65   30   66 1
  66   31   42 1
  67   31   67 1
  68   31   68 1
  69   32   41 1
  70   32   69 1
  71   32   70 1
  72   33   71 1
  73   33   72 1
  74   33   73 1
  75   36   37 ar
  76   36   74 1
  77   37   38 ar
  78   37   75 1
  79   38   39 ar
  80   38   76 1
  81   39   77 1
  82   40   78 1
  83   41   79 1
  84   41   80 1
  85   42   81 1
  86   42   82 1
  87   43   83 1

#	End of record

