#	Name: ASD09740044
#	Creating user name:	WinNT
#	Creation time:	15. 06. 2019 21:22

#	Modifying user name:	WinNT
#	Modification time:	15. 06. 2019 21:22

#	Program:	/corina/corina34_cracker 3.40 0067  02.08.2006

@<TRIPOS>MOLECULE
ASD09740044
  46   49    0    0    0
SMALL
NO_CHARGES


@<TRIPOS>ATOM
   1 N1            -0.0144     1.2085     0.0087 N.2     
   2 O2             0.0021    -0.0041     0.0020 O.3     
   3 C3             1.2066     1.6801    -0.0004 C.2     
   4 N4             2.0465     0.6235    -0.0141 N.2     
   5 C5             1.2702    -0.4443    -0.0125 C.2     
   6 C6             1.7122    -1.8535    -0.0242 C.ar    
   7 C7             1.5954     3.1112     0.0031 C.ar    
   8 C8             3.0748    -2.1593    -0.0389 C.ar    
   9 C9             0.7686    -2.8831    -0.0149 C.ar    
  10 C10            1.1872    -4.2001    -0.0255 C.ar    
  11 C11            2.5483    -4.4983    -0.0455 C.ar    
  12 C12            3.4859    -3.4751    -0.0494 C.ar    
  13 O13            2.9584    -5.7935    -0.0555 O.3     
  14 O14            0.2709    -5.2050    -0.0161 O.3     
  15 C15            0.6022     4.1168     0.0180 C.ar    
  16 C16            1.0134     5.4747     0.0215 C.ar    
  17 C17            2.3927     5.7531     0.0099 C.ar    
  18 C18            3.2739     4.7127    -0.0042 C.ar    
  19 N19            2.8713     3.4520    -0.0022 N.ar    
  20 C20            4.3680    -6.0276    -0.0759 C.3     
  21 C21            4.6347    -7.5341    -0.0845 C.3     
  22 C22           -1.1069    -4.8265     0.0049 C.3     
  23 C23           -1.9807    -6.0824     0.0129 C.3     
  24 C24           -0.7648     3.8120     0.0289 C.ar    
  25 C25           -1.6786     4.8232     0.0427 C.ar    
  26 C26           -1.2751     6.1565     0.0458 C.ar    
  27 C27            0.0462     6.4897     0.0359 C.ar    
  28 H28            3.8065    -1.3649    -0.0423 H       
  29 H29           -0.2860    -2.6505     0.0009 H       
  30 H30            4.5398    -3.7101    -0.0653 H       
  31 H31            2.7472     6.7733     0.0117 H       
  32 H32            4.3330     4.9239    -0.0136 H       
  33 H33            4.7981    -5.5773    -0.9705 H       
  34 H34            4.8229    -5.5831     0.8093 H       
  35 H35            4.1797    -7.9786    -0.9697 H       
  36 H36            5.7099    -7.7127    -0.1001 H       
  37 H37            4.2045    -7.9844     0.8101 H       
  38 H38           -1.3084    -4.2379     0.8999 H       
  39 H39           -1.3338    -4.2316    -0.8799 H       
  40 H40           -3.0317    -5.7937     0.0289 H       
  41 H41           -1.7792    -6.6710    -0.8821 H       
  42 H42           -1.7538    -6.6773     0.8976 H       
  43 H43           -1.0926     2.7829     0.0260 H       
  44 H44           -2.7324     4.5870     0.0511 H       
  45 H45           -2.0206     6.9378     0.0561 H       
  46 H46            0.3460     7.5273     0.0387 H       
@<TRIPOS>BOND
   1    1    2 1
   2    1    3 2
   3    2    5 1
   4    3    4 1
   5    3    7 1
   6    4    5 2
   7    5    6 1
   8    6    8 ar
   9    6    9 ar
  10    7   15 ar
  11    7   19 ar
  12    8   12 ar
  13    8   28 1
  14    9   10 ar
  15    9   29 1
  16   10   11 ar
  17   10   14 1
  18   11   12 ar
  19   11   13 1
  20   12   30 1
  21   13   20 1
  22   14   22 1
  23   15   16 ar
  24   15   24 ar
  25   16   17 ar
  26   16   27 ar
  27   17   18 ar
  28   17   31 1
  29   18   19 ar
  30   18   32 1
  31   20   21 1
  32   20   33 1
  33   20   34 1
  34   21   35 1
  35   21   36 1
  36   21   37 1
  37   22   23 1
  38   22   38 1
  39   22   39 1
  40   23   40 1
  41   23   41 1
  42   23   42 1
  43   24   25 ar
  44   24   43 1
  45   25   26 ar
  46   25   44 1
  47   26   27 ar
  48   26   45 1
  49   27   46 1

#	End of record

