#	Name: ASD03540432
#	Creating user name:	WinNT
#	Creation time:	15. 06. 2019 20:43

#	Modifying user name:	WinNT
#	Modification time:	15. 06. 2019 20:43

#	Program:	/corina/corina34_cracker 3.40 0067  02.08.2006

@<TRIPOS>MOLECULE
ASD03540432
  54   56    0    0    0
SMALL
NO_CHARGES


@<TRIPOS>ATOM
   1 C1            -0.0184     1.5028     0.0103 C.2     
   2 C2             0.0021    -0.0041     0.0020 C.3     
   3 O3             1.0197     2.1211     0.0037 O.2     
   4 O4            -1.1898     2.1580     0.0194 O.3     
   5 N5             3.2962    -1.1207     1.2158 N.am    
   6 C6             2.0248    -0.6909     1.1485 C.2     
   7 N7             1.3897    -0.4735    -0.0138 N.am    
   8 C8             2.0063    -0.6801    -1.1978 C.2     
   9 C9             3.4030    -1.1527    -1.1837 C.ar    
  10 C10            4.1051    -1.3887    -2.3589 C.ar    
  11 C11            5.4239    -1.8354    -2.2868 C.ar    
  12 C12            6.0279    -2.0419    -1.0404 C.ar    
  13 C13            5.3370    -1.8097     0.1153 C.ar    
  14 C14            4.0223    -1.3644     0.0630 C.ar    
  15 O15            1.4250    -0.4820    -2.2471 O.2     
  16 O16            1.4236    -0.4898     2.1858 O.2     
  17 C17            3.9222    -1.3289     2.5238 C.3     
  18 C18            6.1844    -2.0916    -3.5261 C.2     
  19 N19            7.4592    -2.5235    -3.4574 N.am    
  20 O20            5.6606    -1.9130    -4.6086 O.2     
  21 C21            8.2138    -2.7777    -4.6871 C.3     
  22 C22            9.6019    -3.2483    -4.3365 C.ar    
  23 C23            9.8532    -4.5985    -4.1773 C.ar    
  24 C24           11.1248    -5.0324    -3.8559 C.ar    
  25 C25           12.1500    -4.1121    -3.6930 C.ar    
  26 C26           11.8952    -2.7578    -3.8533 C.ar    
  27 C27           10.6232    -2.3294    -4.1802 C.ar    
  28 O28           13.4016    -4.5364    -3.3764 O.3     
  29 C29           14.4077    -3.5330    -3.2241 C.3     
  30 C30           -1.1335     3.6089     0.0270 C.3     
  31 C31           -2.5551     4.1744     0.0369 C.3     
  32 H32           -0.4983    -0.3791     0.8948 H       
  33 H33           -0.5153    -0.3696    -0.8850 H       
  34 H34            3.6346    -1.2282    -3.3177 H       
  35 H35            7.0497    -2.3884    -0.9921 H       
  36 H36            5.8135    -1.9730     1.0706 H       
  37 H37            3.2087    -1.0855     3.3110 H       
  38 H38            4.2268    -2.3712     2.6191 H       
  39 H39            4.7970    -0.6850     2.6145 H       
  40 H40            7.8771    -2.6660    -2.5937 H       
  41 H41            7.7070    -3.5450    -5.2723 H       
  42 H42            8.2781    -1.8592    -5.2704 H       
  43 H43            9.0547    -5.3146    -4.3039 H       
  44 H44           11.3205    -6.0872    -3.7313 H       
  45 H45           12.6916    -2.0394    -3.7270 H       
  46 H46           10.4254    -1.2756    -4.3098 H       
  47 H47           14.1200    -2.8482    -2.4264 H       
  48 H48           15.3571    -4.0056    -2.9725 H       
  49 H49           14.5132    -2.9798    -4.1574 H       
  50 H50           -0.6017     3.9472     0.9164 H       
  51 H51           -0.6102     3.9569    -0.8636 H       
  52 H52           -3.0784     3.8265     0.9275 H       
  53 H53           -2.5128     5.2636     0.0426 H       
  54 H54           -3.0869     3.8361    -0.8525 H       
@<TRIPOS>BOND
   1    1    2 1
   2    1    3 2
   3    1    4 1
   4    2    7 1
   5    2   32 1
   6    2   33 1
   7    4   30 1
   8    5    6 am
   9    5   14 1
  10    5   17 1
  11    6    7 am
  12    6   16 2
  13    7    8 am
  14    8    9 1
  15    8   15 2
  16    9   10 ar
  17    9   14 ar
  18   10   11 ar
  19   10   34 1
  20   11   12 ar
  21   11   18 1
  22   12   13 ar
  23   12   35 1
  24   13   14 ar
  25   13   36 1
  26   17   37 1
  27   17   38 1
  28   17   39 1
  29   18   19 am
  30   18   20 2
  31   19   21 1
  32   19   40 1
  33   21   22 1
  34   21   41 1
  35   21   42 1
  36   22   23 ar
  37   22   27 ar
  38   23   24 ar
  39   23   43 1
  40   24   25 ar
  41   24   44 1
  42   25   26 ar
  43   25   28 1
  44   26   27 ar
  45   26   45 1
  46   27   46 1
  47   28   29 1
  48   29   47 1
  49   29   48 1
  50   29   49 1
  51   30   31 1
  52   30   50 1
  53   30   51 1
  54   31   52 1
  55   31   53 1
  56   31   54 1

#	End of record

