#	Name: ASD01410788
#	Creating user name:	WinNT
#	Creation time:	15. 06. 2019 19:18

#	Modifying user name:	WinNT
#	Modification time:	15. 06. 2019 19:18

#	Program:	/corina/corina34_cracker 3.40 0067  02.08.2006

@<TRIPOS>MOLECULE
ASD01410788
  53   56    0    0    0
SMALL
NO_CHARGES


@<TRIPOS>ATOM
   1 N1            -0.0159     1.3181     0.0093 N.ar    
   2 C2             0.0021    -0.0041     0.0020 C.ar    
   3 C3             1.2066    -0.7206    -0.0133 C.ar    
   4 C4             2.3994    -0.0464    -0.0211 C.ar    
   5 C5             2.3689     1.3679    -0.0132 C.ar    
   6 C6             3.5533     2.1180    -0.0208 C.ar    
   7 C7             3.4953     3.4783    -0.0135 C.ar    
   8 C8             2.2658     4.1421     0.0017 C.ar    
   9 C9             1.0839     3.4347     0.0096 C.ar    
  10 C10            1.1159     2.0297     0.0023 C.ar    
  11 O11            3.5780    -0.7171    -0.0354 O.3     
  12 O12            2.2358     5.5004     0.0092 O.3     
  13 C13            3.4944     6.1772     0.0009 C.3     
  14 C14            3.2605     7.6892     0.0112 C.3     
  15 N15            2.6192     8.0769     1.2746 N.3     
  16 C16            2.5930     9.5391     1.4252 C.3     
  17 C17            1.8650     9.9001     2.7228 C.3     
  18 O18            2.5124     9.2540     3.8223 O.3     
  19 C19            2.5552     7.8290     3.7086 C.3     
  20 C20            3.2901     7.4470     2.4211 C.3     
  21 S21           -1.4450    -2.4972     0.0036 S.3     
  22 C22           -1.2776    -0.7434     0.0108 C.2     
  23 N23           -2.4626    -0.2030     0.0254 N.2     
  24 C24           -3.4901    -1.0172     0.0317 C.2     
  25 C25           -3.1990    -2.3244     0.0222 C.2     
  26 C26           -4.9104    -0.5136     0.0490 C.3     
  27 C27           -5.4481    -0.4546    -1.3822 C.3     
  28 C28           -5.7773    -1.4609     0.8808 C.3     
  29 Cl29          -0.4359     4.2736     0.0291 Cl      
  30 H30            1.1946    -1.8005    -0.0187 H       
  31 H31            4.5103     1.6175    -0.0322 H       
  32 H32            4.4108     4.0512    -0.0191 H       
  33 H33            3.9116    -0.9071    -0.9230 H       
  34 H34            4.0662     5.8920     0.8840 H       
  35 H35            4.0493     5.9015    -0.8959 H       
  36 H36            4.2158     8.2053    -0.0847 H       
  37 H37            2.6145     7.9626    -0.8231 H       
  38 H38            3.6138     9.9194     1.4627 H       
  39 H39            2.0694     9.9829     0.5785 H       
  40 H40            1.8931    10.9801     2.8674 H       
  41 H41            0.8289     9.5669     2.6636 H       
  42 H42            3.0823     7.4112     4.5663 H       
  43 H43            1.5391     7.4357     3.6781 H       
  44 H44            3.2754     6.3637     2.3013 H       
  45 H45            4.3221     7.7939     2.4744 H       
  46 H46           -3.9151    -3.1329     0.0250 H       
  47 H47           -4.9370     0.4835     0.4885 H       
  48 H48           -5.4215    -1.4517    -1.8217 H       
  49 H49           -6.4753    -0.0903    -1.3697 H       
  50 H50           -4.8305     0.2203    -1.9748 H       
  51 H51           -5.7507    -2.4580     0.4413 H       
  52 H52           -5.3943    -1.5030     1.9004 H       
  53 H53           -6.8046    -1.0967     0.8934 H       
@<TRIPOS>BOND
   1    1    2 ar
   2    1   10 ar
   3    2    3 ar
   4    2   22 1
   5    3    4 ar
   6    3   30 1
   7    4    5 ar
   8    4   11 1
   9    5    6 ar
  10    5   10 ar
  11    6    7 ar
  12    6   31 1
  13    7    8 ar
  14    7   32 1
  15    8    9 ar
  16    8   12 1
  17    9   10 ar
  18    9   29 1
  19   11   33 1
  20   12   13 1
  21   13   14 1
  22   13   34 1
  23   13   35 1
  24   14   15 1
  25   14   36 1
  26   14   37 1
  27   15   16 1
  28   15   20 1
  29   16   17 1
  30   16   38 1
  31   16   39 1
  32   17   18 1
  33   17   40 1
  34   17   41 1
  35   18   19 1
  36   19   20 1
  37   19   42 1
  38   19   43 1
  39   20   44 1
  40   20   45 1
  41   21   22 1
  42   21   25 1
  43   22   23 2
  44   23   24 1
  45   24   25 2
  46   24   26 1
  47   25   46 1
  48   26   27 1
  49   26   28 1
  50   26   47 1
  51   27   48 1
  52   27   49 1
  53   27   50 1
  54   28   51 1
  55   28   52 1
  56   28   53 1

#	End of record

