#	Name: ASD05143121
#	Creating user name:	WinNT
#	Creation time:	15. 06. 2019 20:57

#	Modifying user name:	WinNT
#	Modification time:	15. 06. 2019 20:57

#	Program:	/corina/corina34_cracker 3.40 0067  02.08.2006

@<TRIPOS>MOLECULE
ASD05143121
 146  149    0    0    0
SMALL
NO_CHARGES


@<TRIPOS>ATOM
   1 C1            -2.0933     5.4484     7.5658 C.2     
   2 C2            -1.6063     4.7166     8.7898 C.3     
   3 N3            -1.2065     5.9797     6.7010 N.am    
   4 O4            -3.2831     5.5550     7.3562 O.2     
   5 C5            -1.6799     6.6911     5.5110 C.3     
   6 C6            -2.5148     5.7427     4.6483 C.3     
   7 C7            -2.5266     7.8648     5.9312 C.2     
   8 C8            -1.6239     4.6170     4.1192 C.3     
   9 C9            -2.4588     3.6686     3.2564 C.3     
  10 N10           -1.6057     2.5907     2.7497 N.pl3   
  11 C11           -2.1397     1.6119     1.9455 C.2     
  12 N12           -3.4743     1.6446     1.6166 N.pl3   
  13 N13           -1.3808     0.6529     1.4947 N.2     
  14 O14           -3.0178     7.8922     7.0397 O.2     
  15 N15           -2.7381     8.8840     5.0750 N.am    
  16 C16           -3.5613    10.0249     5.4834 C.3     
  17 C17           -2.6577    11.2176     5.8025 C.3     
  18 C18           -1.5003    10.7580     6.6912 C.3     
  19 C19           -0.3606    10.2833     5.8271 C.2     
  20 N20            0.9070    10.6972     6.1245 N.am    
  21 C21            1.9688    10.1805     5.2311 C.3     
  22 C22            2.1174    11.1342     4.0440 C.3     
  23 C23            2.7788    10.3969     2.8779 C.3     
  24 C24            3.7364    11.3442     2.1520 C.3     
  25 N25            3.6825    11.0588     0.7042 N.am    
  26 C26            5.1396    11.1285     2.6574 C.2     
  27 O27            5.5276    11.6813     3.8174 O.3     
  28 O28            5.9155    10.4581     2.0183 O.2     
  29 C29            2.8553    11.8428    -0.0398 C.2     
  30 O30            2.2124    12.7277     0.4842 O.2     
  31 C31            2.7487    11.5978    -1.5229 C.3     
  32 N32            1.5334    12.2779    -2.0267 N.am    
  33 C33            3.9835    12.1636    -2.2272 C.3     
  34 C34            0.4797    11.4569    -2.3134 C.2     
  35 O35            0.5713    10.2574    -2.1595 O.2     
  36 C36           -0.7988    12.0701    -2.8241 C.3     
  37 N37           -1.9252    11.1792    -2.4814 N.am    
  38 C38           -1.0088    13.4370    -2.1697 C.3     
  39 C39           -3.0289    11.7706    -1.9469 C.2     
  40 O40           -3.0578    12.9696    -1.7664 O.2     
  41 C41           -4.2142    10.9140    -1.5832 C.3     
  42 C42            3.9330    11.8098    -3.6912 C.2     
  43 C43            3.2333    12.5511    -4.7432 C.ar    
  44 C44            3.4691    11.8466    -5.9377 C.ar    
  45 N45            4.2546    10.7611    -5.6208 N.pl3   
  46 C46            4.5256    10.7588    -4.2796 C.2     
  47 C47            2.4567    13.7114    -4.7604 C.ar    
  48 C48            1.9291    14.1570    -5.9392 C.ar    
  49 C49            2.1586    13.4652    -7.1208 C.ar    
  50 C50            2.9224    12.3189    -7.1267 C.ar    
  51 N51           -4.7979    11.4228    -0.3210 N.am    
  52 C52           -3.7611     9.4653    -1.3919 C.3     
  53 C53           -4.9595     8.5978    -1.1049 C.ar    
  54 C54           -5.9900     8.5207    -2.0251 C.ar    
  55 C55           -7.0897     7.7283    -1.7690 C.ar    
  56 C56           -7.1615     7.0031    -0.5780 C.ar    
  57 C57           -6.1180     7.0856     0.3462 C.ar    
  58 C58           -5.0217     7.8778     0.0749 C.ar    
  59 C59           -4.5013    10.3925     4.3641 C.2     
  60 O60           -5.6994    10.2617     4.4990 O.2     
  61 C61           -1.0162    13.2782    -0.6480 C.3     
  62 C62           -1.3729    14.6162     0.0027 C.3     
  63 N63           -1.3800    14.4641     1.4598 N.pl3   
  64 C64           -1.6757    15.5409     2.2619 C.2     
  65 N65           -1.9649    16.7603     1.6966 N.pl3   
  66 N66           -1.6820    15.4056     3.5582 N.2     
  67 N67           -3.9861    10.8732     3.1993 N.am    
  68 C68           -4.9554    11.2166     2.1397 C.3     
  69 C69           -4.4029    10.7683     0.8113 C.2     
  70 O70           -3.6217     9.8427     0.7484 O.2     
  71 O71           -0.5649     9.5471     4.8852 O.2     
  72 C72           -5.1768    12.7303     2.1184 C.3     
  73 C73           -5.8379    13.1675     3.4271 C.3     
  74 C74           -6.0560    14.6585     3.4061 C.2     
  75 O75           -5.7174    15.3051     2.4432 O.2     
  76 O76           -6.6264    15.2682     4.4571 O.3     
  77 C77           -8.3003     6.1788    -0.3053 C.1     
  78 N78           -9.2037     5.5249    -0.0889 N.1     
  79 H79           -1.4991     5.4203     9.6153 H       
  80 H80           -2.3260     3.9444     9.0618 H       
  81 H81           -0.6416     4.2556     8.5778 H       
  82 H82           -0.2548     5.8910     6.8665 H       
  83 H83           -0.8248     7.0472     4.9365 H       
  84 H84           -3.3188     5.3178     5.2491 H       
  85 H85           -2.9402     6.2940     3.8097 H       
  86 H86           -0.8198     5.0420     3.5183 H       
  87 H87           -1.1984     4.0658     4.9577 H       
  88 H88           -3.2628     3.2437     3.8573 H       
  89 H89           -2.8843     4.2199     2.4178 H       
  90 H90           -0.6642     2.5677     2.9817 H       
  91 H91           -4.0391     2.3582     1.9521 H       
  92 H92           -3.8510     0.9539     1.0492 H       
  93 H93           -1.7575    -0.0377     0.9272 H       
  94 H94           -2.3453     8.8620     4.1884 H       
  95 H95           -4.1377     9.7585     6.3693 H       
  96 H96           -2.2615    11.6315     4.8752 H       
  97 H97           -3.2348    11.9813     6.3237 H       
  98 H98           -1.1648    11.5902     7.3100 H       
  99 H99           -1.8355     9.9417     7.3310 H       
 100 H100           1.0982    11.2887     6.8691 H       
 101 H101           2.9110    10.1258     5.7764 H       
 102 H102           1.6937     9.1890     4.8714 H       
 103 H103           1.1334    11.4896     3.7380 H       
 104 H104           2.7361    11.9831     4.3351 H       
 105 H105           3.3346     9.5399     3.2583 H       
 106 H106           2.0120    10.0533     2.1836 H       
 107 H107           3.4357    12.3762     2.3323 H       
 108 H108           4.2090    10.3491     0.3041 H       
 109 H109           6.4371    11.5149     4.1005 H       
 110 H110           2.6742    10.5270    -1.7126 H       
 111 H111           1.4887    13.2396    -2.1452 H       
 112 H112           4.0004    13.2478    -2.1158 H       
 113 H113           4.8828    11.7385    -1.7815 H       
 114 H114          -0.7413    12.1862    -3.9064 H       
 115 H115          -1.8811    10.2215    -2.6291 H       
 116 H116          -0.2003    14.1074    -2.4611 H       
 117 H117          -1.9618    13.8535    -2.4962 H       
 118 H118          -4.9593    10.9647    -2.3772 H       
 119 H119           4.5717    10.0987    -6.2545 H       
 120 H120           5.1214    10.0169    -3.7687 H       
 121 H121           2.2734    14.2544    -3.8450 H       
 122 H122           1.3285    15.0545    -5.9520 H       
 123 H123           1.7345    13.8297    -8.0447 H       
 124 H124           3.0954    11.7879    -8.0511 H       
 125 H125          -5.4173    12.1689    -0.2996 H       
 126 H126          -3.2685     9.1158    -2.2993 H       
 127 H127          -3.0640     9.4100    -0.5558 H       
 128 H128          -5.9333     9.0825    -2.9457 H       
 129 H129          -7.8935     7.6693    -2.4879 H       
 130 H130          -6.1673     6.5275     1.2695 H       
 131 H131          -4.2139     7.9425     0.7888 H       
 132 H132          -1.7545    12.5280    -0.3645 H       
 133 H133          -0.0291    12.9620    -0.3109 H       
 134 H134          -0.6347    15.3663    -0.2807 H       
 135 H135          -2.3601    14.9324    -0.3344 H       
 136 H136          -1.1760    13.6038     1.8586 H       
 137 H137          -1.9602    16.8610     0.7318 H       
 138 H138          -2.1735    17.5200     2.2625 H       
 139 H139          -1.8907    16.1652     4.1241 H       
 140 H140          -3.0309    10.9847     3.0720 H       
 141 H141          -5.9012    10.7098     2.3317 H       
 142 H142          -4.2176    13.2363     2.0091 H       
 143 H143          -5.8228    12.9912     1.2801 H       
 144 H144          -6.7971    12.6615     3.5363 H       
 145 H145          -5.1919    12.9066     4.2653 H       
 146 H146          -6.7456    16.2260     4.3974 H       
@<TRIPOS>BOND
   1    1    2 1
   2    1    3 am
   3    1    4 2
   4    2   79 1
   5    2   80 1
   6    2   81 1
   7    3    5 1
   8    3   82 1
   9    5    6 1
  10    5    7 1
  11    5   83 1
  12    6    8 1
  13    6   84 1
  14    6   85 1
  15    7   14 2
  16    7   15 am
  17    8    9 1
  18    8   86 1
  19    8   87 1
  20    9   10 1
  21    9   88 1
  22    9   89 1
  23   10   11 1
  24   10   90 1
  25   11   12 1
  26   11   13 2
  27   12   91 1
  28   12   92 1
  29   13   93 1
  30   15   16 1
  31   15   94 1
  32   16   17 1
  33   16   59 1
  34   16   95 1
  35   17   18 1
  36   17   96 1
  37   17   97 1
  38   18   19 1
  39   18   98 1
  40   18   99 1
  41   19   20 am
  42   19   71 2
  43   20   21 1
  44   20  100 1
  45   21   22 1
  46   21  101 1
  47   21  102 1
  48   22   23 1
  49   22  103 1
  50   22  104 1
  51   23   24 1
  52   23  105 1
  53   23  106 1
  54   24   25 1
  55   24   26 1
  56   24  107 1
  57   25   29 am
  58   25  108 1
  59   26   27 1
  60   26   28 2
  61   27  109 1
  62   29   30 2
  63   29   31 1
  64   31   32 1
  65   31   33 1
  66   31  110 1
  67   32   34 am
  68   32  111 1
  69   33   42 1
  70   33  112 1
  71   33  113 1
  72   34   35 2
  73   34   36 1
  74   36   37 1
  75   36   38 1
  76   36  114 1
  77   37   39 am
  78   37  115 1
  79   38   61 1
  80   38  116 1
  81   38  117 1
  82   39   40 2
  83   39   41 1
  84   41   51 1
  85   41   52 1
  86   41  118 1
  87   42   43 1
  88   42   46 2
  89   43   44 ar
  90   43   47 ar
  91   44   45 1
  92   44   50 ar
  93   45   46 1
  94   45  119 1
  95   46  120 1
  96   47   48 ar
  97   47  121 1
  98   48   49 ar
  99   48  122 1
 100   49   50 ar
 101   49  123 1
 102   50  124 1
 103   51   69 am
 104   51  125 1
 105   52   53 1
 106   52  126 1
 107   52  127 1
 108   53   54 ar
 109   53   58 ar
 110   54   55 ar
 111   54  128 1
 112   55   56 ar
 113   55  129 1
 114   56   57 ar
 115   56   77 1
 116   57   58 ar
 117   57  130 1
 118   58  131 1
 119   59   60 2
 120   59   67 am
 121   61   62 1
 122   61  132 1
 123   61  133 1
 124   62   63 1
 125   62  134 1
 126   62  135 1
 127   63   64 1
 128   63  136 1
 129   64   65 1
 130   64   66 2
 131   65  137 1
 132   65  138 1
 133   66  139 1
 134   67   68 1
 135   67  140 1
 136   68   69 1
 137   68   72 1
 138   68  141 1
 139   69   70 2
 140   72   73 1
 141   72  142 1
 142   72  143 1
 143   73   74 1
 144   73  144 1
 145   73  145 1
 146   74   75 2
 147   74   76 1
 148   76  146 1
 149   77   78 3

#	End of record

