#	Name: ASD01870185
#	Creating user name:	WinNT
#	Creation time:	15. 06. 2019 19:38

#	Modifying user name:	WinNT
#	Modification time:	15. 06. 2019 19:38

#	Program:	/corina/corina34_cracker 3.40 0067  02.08.2006

@<TRIPOS>MOLECULE
ASD01870185
  54   58    0    0    0
SMALL
NO_CHARGES


@<TRIPOS>ATOM
   1 C1            -0.0168     1.3890     0.0097 C.ar    
   2 C2             0.0021    -0.0041     0.0020 C.ar    
   3 C3             1.1787    -0.6895    -0.0125 C.ar    
   4 C4             2.3941     0.0134    -0.0203 C.ar    
   5 C5             2.3756     1.4326    -0.0130 C.ar    
   6 C6             1.1407     2.1050     0.0025 C.ar    
   7 C7             3.6272    -0.6637    -0.0358 C.ar    
   8 C8             4.7900     0.0351    -0.0436 C.ar    
   9 C9             4.7882     1.4439    -0.0361 C.ar    
  10 C10            3.5864     2.1337    -0.0214 C.ar    
  11 C11            5.8880     2.4286    -0.0415 C.2     
  12 N12            5.3952     3.6790    -0.0301 N.am    
  13 C13            3.9298     3.6021    -0.0168 C.3     
  14 C14            6.1876     4.9112    -0.0312 C.3     
  15 C15            7.0842     4.9449     1.2102 C.3     
  16 C16            7.9646     6.1963     1.1604 C.3     
  17 O17            8.7337     6.1885    -0.0439 O.3     
  18 C18            7.9485     6.2046    -1.2378 C.3     
  19 C19            7.0674     4.9535    -1.2843 C.3     
  20 C20            3.6565    -2.1704    -0.0431 C.3     
  21 C21            3.5284    -2.6685    -1.4596 C.ar    
  22 C22            4.6620    -2.8728    -2.2245 C.ar    
  23 C23            4.5472    -3.3294    -3.5233 C.ar    
  24 C24            3.2932    -3.5828    -4.0599 C.ar    
  25 C25            2.1574    -3.3770    -3.2904 C.ar    
  26 C26            2.2778    -2.9258    -1.9903 C.ar    
  27 O27            7.0708     2.1485    -0.0540 O.2     
  28 O28            3.1777    -4.0315    -5.3375 O.3     
  29 C29            1.8555    -4.2713    -5.8238 C.3     
  30 H30           -0.9637     1.9083     0.0170 H       
  31 H31           -0.9306    -0.5486     0.0080 H       
  32 H32            1.1770    -1.7695    -0.0175 H       
  33 H33            1.1108     3.1846     0.0079 H       
  34 H34            5.7302    -0.4960    -0.0555 H       
  35 H35            3.5210     4.0855    -0.9040 H       
  36 H36            3.5378     4.0759     0.8832 H       
  37 H37            5.5208     5.7734    -0.0230 H       
  38 H38            6.4645     4.9709     2.1066 H       
  39 H39            7.7151     4.0562     1.2281 H       
  40 H40            7.3343     7.0853     1.1834 H       
  41 H41            8.6350     6.2036     2.0198 H       
  42 H42            7.3180     7.0937    -1.2462 H       
  43 H43            8.6073     6.2178    -2.1061 H       
  44 H44            7.6980     4.0649    -1.3168 H       
  45 H45            6.4357     4.9856    -2.1721 H       
  46 H46            4.5991    -2.5175     0.3803 H       
  47 H47            2.8279    -2.5529     0.5529 H       
  48 H48            5.6379    -2.6750    -1.8064 H       
  49 H49            5.4329    -3.4885    -4.1205 H       
  50 H50            1.1801    -3.5736    -3.7059 H       
  51 H51            1.3939    -2.7654    -1.3908 H       
  52 H52            1.2809    -3.3458    -5.7854 H       
  53 H53            1.9057    -4.6252    -6.8535 H       
  54 H54            1.3714    -5.0256    -5.2035 H       
@<TRIPOS>BOND
   1    1    2 ar
   2    1    6 ar
   3    1   30 1
   4    2    3 ar
   5    2   31 1
   6    3    4 ar
   7    3   32 1
   8    4    5 ar
   9    4    7 ar
  10    5    6 ar
  11    5   10 ar
  12    6   33 1
  13    7    8 ar
  14    7   20 1
  15    8    9 ar
  16    8   34 1
  17    9   10 ar
  18    9   11 1
  19   10   13 1
  20   11   12 am
  21   11   27 2
  22   12   13 1
  23   12   14 1
  24   13   35 1
  25   13   36 1
  26   14   15 1
  27   14   19 1
  28   14   37 1
  29   15   16 1
  30   15   38 1
  31   15   39 1
  32   16   17 1
  33   16   40 1
  34   16   41 1
  35   17   18 1
  36   18   19 1
  37   18   42 1
  38   18   43 1
  39   19   44 1
  40   19   45 1
  41   20   21 1
  42   20   46 1
  43   20   47 1
  44   21   22 ar
  45   21   26 ar
  46   22   23 ar
  47   22   48 1
  48   23   24 ar
  49   23   49 1
  50   24   25 ar
  51   24   28 1
  52   25   26 ar
  53   25   50 1
  54   26   51 1
  55   28   29 1
  56   29   52 1
  57   29   53 1
  58   29   54 1

#	End of record

