#	Name: ASD03091113
#	Creating user name:	WinNT
#	Creation time:	15. 06. 2019 20:30

#	Modifying user name:	WinNT
#	Modification time:	15. 06. 2019 20:30

#	Program:	/corina/corina34_cracker 3.40 0067  02.08.2006

@<TRIPOS>MOLECULE
ASD03091113
  56   59    0    0    0
SMALL
NO_CHARGES


@<TRIPOS>ATOM
   1 C1            -0.0331     1.3983     0.0362 C.2     
   2 C2            -0.0278    -0.0753    -0.0119 C.ar    
   3 C3             1.1787    -0.7710    -0.1824 C.ar    
   4 C4             1.1746    -2.1590    -0.2267 C.ar    
   5 C5            -0.0116    -2.8528    -0.1039 C.ar    
   6 C6            -1.2114    -2.1693     0.0654 C.ar    
   7 C7            -1.2234    -0.7864     0.1178 C.ar    
   8 O8             1.0177     2.0103     0.0405 O.2     
   9 N9            -1.2026     2.0672     0.0698 N.am    
  10 C10           -1.2079     3.5314     0.1177 C.3     
  11 C11           -2.6455     4.0315     0.2736 C.3     
  12 C12           -3.2964     3.6290     1.6075 C.3     
  13 C13           -3.9174     5.0355     1.6385 C.3     
  14 C14           -2.7420     5.4883     0.7564 C.3     
  15 C15           -3.5152     3.7299    -0.9485 C.3     
  16 O16           -2.9000     4.2753    -2.1173 O.3     
  17 N17           -5.2455    -3.5539    -0.3394 N.3     
  18 C18           -4.8121    -2.7322     0.8010 C.3     
  19 C19           -3.5335    -1.9800     0.4660 C.3     
  20 N20           -2.4099    -2.8829     0.1890 N.3     
  21 C21           -2.6730    -3.6829    -1.0154 C.3     
  22 C22           -3.2844    -5.0241    -0.6385 C.3     
  23 C23           -4.7304    -4.9232    -0.1966 C.3     
  24 C24           -5.0112    -2.9981    -1.6549 C.3     
  25 C25           -3.5300    -2.8747    -1.9724 C.3     
  26 N26            2.3756    -0.0722    -0.3073 N.pl3   
  27 H27            2.1021    -2.6966    -0.3578 H       
  28 H28           -0.0088    -3.9322    -0.1398 H       
  29 H29           -2.1554    -0.2580     0.2537 H       
  30 H30           -2.0409     1.5792     0.0624 H       
  31 H31           -0.6117     3.8694     0.9652 H       
  32 H32           -0.7839     3.9266    -0.8055 H       
  33 H33           -4.0309     2.8294     1.5111 H       
  34 H34           -2.5780     3.4511     2.4077 H       
  35 H35           -4.8854     5.0965     1.1412 H       
  36 H36           -3.9201     5.4898     2.6293 H       
  37 H37           -1.8721     5.8188     1.3240 H       
  38 H38           -3.0289     6.1898    -0.0270 H       
  39 H39           -3.6198     2.6510    -1.0627 H       
  40 H40           -4.4996     4.1780    -0.8133 H       
  41 H41           -3.3978     4.1216    -2.9319 H       
  42 H42           -5.5963    -2.0159     1.0460 H       
  43 H43           -4.6343    -3.3773     1.6614 H       
  44 H44           -3.7099    -1.3567    -0.4106 H       
  45 H45           -3.2712    -1.3377     1.3067 H       
  46 H46           -1.7199    -3.8722    -1.5093 H       
  47 H47           -3.2281    -5.6885    -1.5008 H       
  48 H48           -2.7006    -5.4587     0.1728 H       
  49 H49           -4.8050    -5.2243     0.8483 H       
  50 H50           -5.3359    -5.5962    -0.8037 H       
  51 H51           -5.4798    -3.6419    -2.3992 H       
  52 H52           -5.4675    -2.0096    -1.7074 H       
  53 H53           -3.2401    -1.8259    -1.9082 H       
  54 H54           -3.3550    -3.2274    -2.9888 H       
  55 H55            2.3682     0.8960    -0.3651 H       
  56 H56            3.2173    -0.5534    -0.3365 H       
@<TRIPOS>BOND
   1    1    2 1
   2    1    8 2
   3    1    9 am
   4    2    3 ar
   5    2    7 ar
   6    3    4 ar
   7    3   26 1
   8    4    5 ar
   9    4   27 1
  10    5    6 ar
  11    5   28 1
  12    6    7 ar
  13    6   20 1
  14    7   29 1
  15    9   10 1
  16    9   30 1
  17   10   11 1
  18   10   31 1
  19   10   32 1
  20   11   12 1
  21   11   14 1
  22   11   15 1
  23   12   13 1
  24   12   33 1
  25   12   34 1
  26   13   14 1
  27   13   35 1
  28   13   36 1
  29   14   37 1
  30   14   38 1
  31   15   16 1
  32   15   39 1
  33   15   40 1
  34   16   41 1
  35   17   18 1
  36   17   23 1
  37   17   24 1
  38   18   19 1
  39   18   42 1
  40   18   43 1
  41   19   20 1
  42   19   44 1
  43   19   45 1
  44   20   21 1
  45   21   22 1
  46   21   25 1
  47   21   46 1
  48   22   23 1
  49   22   47 1
  50   22   48 1
  51   23   49 1
  52   23   50 1
  53   24   25 1
  54   24   51 1
  55   24   52 1
  56   25   53 1
  57   25   54 1
  58   26   55 1
  59   26   56 1

#	End of record

