#	Name: ASD07930599
#	Creating user name:	WinNT
#	Creation time:	15. 06. 2019 21:12

#	Modifying user name:	WinNT
#	Modification time:	15. 06. 2019 21:12

#	Program:	/corina/corina34_cracker 3.40 0067  02.08.2006

@<TRIPOS>MOLECULE
ASD07930599
  48   50    0    0    0
SMALL
NO_CHARGES


@<TRIPOS>ATOM
   1 C1             1.3699     0.7537    -1.5457 C.3     
   2 N2             2.3132    -2.0764    -1.4376 N.2     
   3 N3             0.0353    -2.5811    -1.3053 N.pl3   
   4 C4            -0.8997    -2.7420    -0.1868 C.3     
   5 C5            -1.5449    -1.3864     0.1325 C.3     
   6 S6            -0.2173    -0.1882     0.4737 S.o2    
   7 N7             0.8032    -0.3908    -0.8279 N.am    
   8 C8             1.0894    -1.6970    -1.1986 C.2     
   9 C9            -0.1433    -3.2500     1.0423 C.3     
  10 C10           -1.9707    -3.7325    -0.5647 C.ar    
  11 C11           -1.6888    -4.7462    -1.4620 C.ar    
  12 C12           -2.6775    -5.6601    -1.8104 C.ar    
  13 C13           -3.9455    -5.5526    -1.2566 C.ar    
  14 C14           -4.2234    -4.5370    -0.3592 C.ar    
  15 C15           -3.2347    -3.6304    -0.0089 C.ar    
  16 O16           -0.6959     1.1439     0.3488 O.2     
  17 O17            0.5518    -0.5941     1.5975 O.2     
  18 F18           -3.5079    -2.6396     0.8679 F       
  19 N19           -2.3942    -6.6871    -2.7193 N.am    
  20 C20           -3.3900    -7.2496    -3.4324 C.2     
  21 O21           -4.5172    -6.8011    -3.3607 O.2     
  22 C22           -3.1104    -8.4146    -4.3037 C.ar    
  23 N23           -1.8773    -8.9000    -4.3779 N.ar    
  24 C24           -3.8683   -10.0847    -5.8442 C.ar    
  25 C25           -4.1453    -8.9952    -5.0339 C.ar    
  26 C26           -1.5871    -9.9328    -5.1388 C.ar    
  27 C27           -2.5656   -10.5559    -5.8964 C.ar    
  28 F28           -0.8539   -12.0219    -6.6412 F       
  29 F29           -0.4538    -4.8484    -2.0001 F       
  30 F30           -5.4576    -4.4318     0.1803 F       
  31 F31           -2.9643   -12.8497    -6.3580 F       
  32 C32           -2.2182   -11.7381    -6.7641 C.3     
  33 F33           -2.5142   -11.4400    -8.0986 F       
  34 H34            2.3189     1.0350    -1.0895 H       
  35 H35            1.5342     0.4832    -2.5888 H       
  36 H36            0.6781     1.5944    -1.4931 H       
  37 H37            3.0422    -1.4415    -1.3574 H       
  38 H38           -0.0848    -3.0982    -2.1171 H       
  39 H39           -2.1335    -1.0495    -0.7208 H       
  40 H40           -2.1872    -1.4822     1.0079 H       
  41 H41            0.6916    -2.5828     1.2566 H       
  42 H42           -0.8171    -3.2755     1.8987 H       
  43 H43            0.2345    -4.2537     0.8473 H       
  44 H44           -4.7148    -6.2610    -1.5261 H       
  45 H45           -1.4813    -6.9936    -2.8357 H       
  46 H46           -4.6497   -10.5561    -6.4219 H       
  47 H47           -5.1490    -8.6019    -4.9691 H       
  48 H48           -0.5720   -10.3001    -5.1737 H       
@<TRIPOS>BOND
   1    1    7 1
   2    1   34 1
   3    1   35 1
   4    1   36 1
   5    2    8 2
   6    2   37 1
   7    3    4 1
   8    3    8 1
   9    3   38 1
  10    4    5 1
  11    4    9 1
  12    4   10 1
  13    5    6 1
  14    5   39 1
  15    5   40 1
  16    6    7 am
  17    6   16 2
  18    6   17 2
  19    7    8 1
  20    9   41 1
  21    9   42 1
  22    9   43 1
  23   10   11 ar
  24   10   15 ar
  25   11   12 ar
  26   11   29 1
  27   12   13 ar
  28   12   19 1
  29   13   14 ar
  30   13   44 1
  31   14   15 ar
  32   14   30 1
  33   15   18 1
  34   19   20 am
  35   19   45 1
  36   20   21 2
  37   20   22 1
  38   22   23 ar
  39   22   25 ar
  40   23   26 ar
  41   24   25 ar
  42   24   27 ar
  43   24   46 1
  44   25   47 1
  45   26   27 ar
  46   26   48 1
  47   27   32 1
  48   28   32 1
  49   31   32 1
  50   32   33 1

#	End of record

