#	Name: ASD01885494
#	Creating user name:	WinNT
#	Creation time:	15. 06. 2019 19:49

#	Modifying user name:	WinNT
#	Modification time:	15. 06. 2019 19:49

#	Program:	/corina/corina34_cracker 3.40 0067  02.08.2006

@<TRIPOS>MOLECULE
ASD01885494
  46   49    0    0    0
SMALL
NO_CHARGES


@<TRIPOS>ATOM
   1 C1             0.1492     1.2530     0.1300 C.ar    
   2 C2             0.2306    -0.1393     0.1503 C.ar    
   3 N3            -0.8501    -0.9589     0.2044 N.2     
   4 C4            -1.9461    -0.8163    -0.4471 C.2     
   5 C5            -2.1762     0.3567    -1.3636 C.3     
   6 C6            -2.1449     1.6150    -0.5334 C.2     
   7 N7            -1.0492     1.9545     0.1454 N.am    
   8 C8             1.3217     2.0065     0.0862 C.ar    
   9 C9             2.5596     1.3871     0.0577 C.ar    
  10 C10            2.6416    -0.0017     0.0723 C.ar    
  11 C11            1.4943    -0.7559     0.1178 C.ar    
  12 C12           -3.0071    -1.8264    -0.2952 C.ar    
  13 O13           -3.1263     2.3259    -0.4841 O.2     
  14 C14           -2.7750    -2.9788     0.4627 C.ar    
  15 C15           -3.7688    -3.9262     0.6056 C.ar    
  16 C16           -4.9977    -3.7439     0.0031 C.ar    
  17 C17           -5.2444    -2.5974    -0.7574 C.ar    
  18 C18           -4.2488    -1.6337    -0.9024 C.ar    
  19 N19            3.7263     2.1566     0.0138 N.am    
  20 C20            4.8362     1.7347     0.6514 C.2     
  21 O21            5.9895     2.4177     0.5192 O.3     
  22 C22            7.0946     1.8814     1.1013 C.ar    
  23 O23            4.7964     0.7381     1.3455 O.2     
  24 C24            7.7232     0.7882     0.5231 C.ar    
  25 C25            8.8464     0.2452     1.1164 C.ar    
  26 C26            9.3438     0.7901     2.2858 C.ar    
  27 C27            8.7188     1.8793     2.8643 C.ar    
  28 C28            7.5989     2.4298     2.2715 C.ar    
  29 C29           -6.5195    -2.4113    -1.3820 C.1     
  30 N30           -7.5310    -2.2637    -1.8776 N.1     
  31 H31           -1.3902     0.3940    -2.1178 H       
  32 H32           -3.1477     0.2598    -1.8482 H       
  33 H33           -1.0923     2.7527     0.6949 H       
  34 H34            1.2635     3.0848     0.0739 H       
  35 H35            3.6064    -0.4865     0.0475 H       
  36 H36            1.5634    -1.8337     0.1288 H       
  37 H37           -1.8161    -3.1280     0.9368 H       
  38 H38           -3.5841    -4.8145     1.1914 H       
  39 H39           -5.7704    -4.4894     0.1194 H       
  40 H40           -4.4343    -0.7458    -1.4887 H       
  41 H41            3.7368     2.9941    -0.4756 H       
  42 H42            7.3347     0.3618    -0.3899 H       
  43 H43            9.3362    -0.6058     0.6666 H       
  44 H44           10.2218     0.3639     2.7483 H       
  45 H45            9.1088     2.3027     3.7781 H       
  46 H46            7.1113     3.2808     2.7235 H       
@<TRIPOS>BOND
   1    1    2 ar
   2    1    8 ar
   3    1    7 1
   4    2    3 1
   5    2   11 ar
   6    3    4 2
   7    4    5 1
   8    4   12 1
   9    5    6 1
  10    5   31 1
  11    5   32 1
  12    6    7 am
  13    6   13 2
  14    7   33 1
  15    8    9 ar
  16    8   34 1
  17    9   10 ar
  18    9   19 1
  19   10   11 ar
  20   10   35 1
  21   11   36 1
  22   12   14 ar
  23   12   18 ar
  24   14   15 ar
  25   14   37 1
  26   15   16 ar
  27   15   38 1
  28   16   17 ar
  29   16   39 1
  30   17   29 1
  31   17   18 ar
  32   18   40 1
  33   19   20 am
  34   19   41 1
  35   20   21 1
  36   20   23 2
  37   21   22 1
  38   22   24 ar
  39   22   28 ar
  40   24   25 ar
  41   24   42 1
  42   25   26 ar
  43   25   43 1
  44   26   27 ar
  45   26   44 1
  46   27   28 ar
  47   27   45 1
  48   28   46 1
  49   29   30 3

#	End of record

