#	Name: ASD05740026
#	Creating user name:	WinNT
#	Creation time:	15. 06. 2019 21:02

#	Modifying user name:	WinNT
#	Modification time:	15. 06. 2019 21:02

#	Program:	/corina/corina34_cracker 3.40 0067  02.08.2006

@<TRIPOS>MOLECULE
ASD05740026
  49   50    0    0    0
SMALL
NO_CHARGES


@<TRIPOS>ATOM
   1 C1            -0.1723     1.4548     0.0430 C.3     
   2 C2             0.1994    -0.9355     3.6249 C.ar    
   3 C3             4.5619    -1.6337    -7.5037 C.3     
   4 C4             0.2810    -2.3270     3.5523 C.ar    
   5 C5             0.0827    -0.1908     2.4880 C.ar    
   6 C6             0.0446    -0.8254     1.2402 C.ar    
   7 C7             0.1265    -2.2283     1.1596 C.ar    
   8 C8             0.2448    -2.9713     2.3236 C.ar    
   9 C9            -0.0808    -0.0489     0.0058 C.2     
  10 C10           -0.1130    -0.7238    -1.1792 C.2     
  11 C11           -0.0254    -2.1380    -1.1836 C.2     
  12 O12            0.0887    -2.8384    -0.0449 O.3     
  13 S13           -0.2632     0.1587    -2.6968 S.3     
  14 C14            1.2855    -0.1382    -3.4830 C.ar    
  15 C15            2.3087    -0.8168    -2.8161 C.ar    
  16 O16           -0.0554    -2.7320    -2.2462 O.2     
  17 C17            2.7537     0.0373    -5.3698 C.ar    
  18 N18            3.6978    -0.6053    -4.6977 N.ar    
  19 C19            3.5060    -1.0314    -3.4620 C.ar    
  20 S20            0.4319    -3.2726     5.0314 S.3     
  21 N21            3.0043     0.4666    -6.6701 N.am    
  22 S22            4.4763     0.1733    -7.3697 S.o2    
  23 O23            5.4178     0.6478    -6.4169 O.2     
  24 O24            4.3762     0.7647    -8.6579 O.2     
  25 C25            1.5184     0.2926    -4.7872 C.ar    
  26 F26            0.5579     0.9480    -5.4750 F       
  27 C27            0.4342    -2.0041     6.3282 C.3     
  28 H28            0.8312     1.8792     0.0772 H       
  29 H29           -0.6866     1.8098    -0.8500 H       
  30 H30           -0.7275     1.7632     0.9289 H       
  31 H31            0.2242    -0.4459     4.5872 H       
  32 H32            3.7389    -1.9915    -8.1223 H       
  33 H33            5.5099    -1.9198    -7.9593 H       
  34 H34            4.4883    -2.0756    -6.5100 H       
  35 H35            0.0196     0.8856     2.5501 H       
  36 H36            0.3084    -4.0483     2.2746 H       
  37 H37            2.1625    -1.1687    -1.8055 H       
  38 H38            4.2999    -1.5555    -2.9506 H       
  39 H39            2.3166     0.9374    -7.1664 H       
  40 H40            0.5247    -2.4819     7.3037 H       
  41 H41            1.2762    -1.3291     6.1747 H       
  42 H42           -0.4969    -1.4390     6.2853 H       
  43 C43           11.0371     9.5485    14.1720 C.3     
  44 N44           11.0569     8.0837    14.1639 N.2     
  45 C45           11.5976     7.4711    13.2179 C.1     
  46 O46           12.1202     6.8792    12.3037 O.2     
  47 H47           12.0597     9.9258    14.1642 H       
  48 H48           10.5099     9.9096    13.2889 H       
  49 H49           10.5269     9.9000    15.0688 H       
@<TRIPOS>BOND
   1    1    9 1
   2    1   28 1
   3    1   29 1
   4    1   30 1
   5    2    4 ar
   6    2    5 ar
   7    2   31 1
   8    3   22 1
   9    3   32 1
  10    3   33 1
  11    3   34 1
  12    4   20 1
  13    4    8 ar
  14    5    6 ar
  15    5   35 1
  16    6    7 ar
  17    6    9 1
  18    7    8 ar
  19    7   12 1
  20    8   36 1
  21    9   10 2
  22   10   11 1
  23   10   13 1
  24   11   12 1
  25   11   16 2
  26   13   14 1
  27   14   15 ar
  28   14   25 ar
  29   15   19 ar
  30   15   37 1
  31   17   18 ar
  32   17   21 1
  33   17   25 ar
  34   18   19 ar
  35   19   38 1
  36   20   27 1
  37   21   22 am
  38   21   39 1
  39   22   23 2
  40   22   24 2
  41   25   26 1
  42   27   40 1
  43   27   41 1
  44   27   42 1
  45   43   44 1
  46   43   47 1
  47   43   48 1
  48   43   49 1
  49   44   45 2
  50   45   46 2

#	End of record

