#	Name: ASD03430439
#	Creating user name:	WinNT
#	Creation time:	15. 06. 2019 20:41

#	Modifying user name:	WinNT
#	Modification time:	15. 06. 2019 20:41

#	Program:	/corina/corina34_cracker 3.40 0067  02.08.2006

@<TRIPOS>MOLECULE
ASD03430439
  56   61    0    0    0
SMALL
NO_CHARGES


@<TRIPOS>ATOM
   1 N1            -0.1304     1.3367     0.5326 N.am    
   2 C2            -0.2238     0.0293     0.8285 C.2     
   3 C3             1.1386    -0.4154     1.3164 C.3     
   4 C4             1.9822     0.8365     1.2425 C.ar    
   5 C5             3.3003     1.0965     1.5447 C.ar    
   6 C6             3.8098     2.3716     1.3723 C.ar    
   7 C7             2.9924     3.3807     0.8968 C.ar    
   8 C8             1.6706     3.1233     0.5935 C.ar    
   9 C9             1.1506     1.8405     0.7644 C.ar    
  10 O10           -1.2135    -0.6640     0.7246 O.2     
  11 O11            0.7615    -2.0665     6.6931 O.3     
  12 C12           -0.1371    -1.0950     7.2545 C.3     
  13 C13            0.0472     0.1234     6.3192 C.3     
  14 C14            0.5128    -0.5355     5.0349 C.ar    
  15 C15            0.9065    -1.8279     5.3607 C.ar    
  16 C16            1.3708    -2.6649     4.3506 C.ar    
  17 C17            1.4438    -2.2077     3.0458 C.ar    
  18 C18            1.0545    -0.9123     2.7366 C.ar    
  19 C19            0.5893    -0.0791     3.7375 C.ar    
  20 O20            1.8990    -3.0303     2.0645 O.3     
  21 C21           -1.2433     2.1396     0.0198 C.3     
  22 C22           -0.9636     2.5320    -1.4081 C.ar    
  23 C23           -1.4753     3.7125    -1.9134 C.ar    
  24 C24           -1.2187     4.0724    -3.2232 C.ar    
  25 C25           -0.4501     3.2520    -4.0276 C.ar    
  26 C26            0.0624     2.0719    -3.5220 C.ar    
  27 C27           -0.1906     1.7141    -2.2109 C.ar    
  28 C28           -2.5144     1.3322     0.0790 C.ar    
  29 C29           -3.5065     1.6702     0.9803 C.ar    
  30 C30           -4.6724     0.9295     1.0347 C.ar    
  31 C31           -4.8463    -0.1489     0.1876 C.ar    
  32 C32           -3.8546    -0.4864    -0.7143 C.ar    
  33 C33           -2.6905     0.2570    -0.7717 C.ar    
  34 Cl34           0.6540     4.3982    -0.0021 Cl      
  35 H35            1.5444    -1.1883     0.6637 H       
  36 H36            3.9357     0.3062     1.9161 H       
  37 H37            4.8431     2.5782     1.6089 H       
  38 H38            3.3903     4.3757     0.7624 H       
  39 H39           -1.1653    -1.4554     7.2210 H       
  40 H40            0.1526    -0.8455     8.2752 H       
  41 H41           -0.8977     0.6456     6.1688 H       
  42 H42            0.8077     0.8010     6.7073 H       
  43 H43            1.6750    -3.6743     4.5852 H       
  44 H44            0.2850     0.9300     3.5017 H       
  45 H45            1.2065    -3.5513     1.6353 H       
  46 H46           -1.3544     3.0372     0.6281 H       
  47 H47           -2.0758     4.3535    -1.2850 H       
  48 H48           -1.6191     4.9944    -3.6182 H       
  49 H49           -0.2502     3.5328    -5.0511 H       
  50 H50            0.6626     1.4307    -4.1505 H       
  51 H51            0.2129     0.7939    -1.8148 H       
  52 H52           -3.3706     2.5127     1.6422 H       
  53 H53           -5.4473     1.1932     1.7393 H       
  54 H54           -5.7569    -0.7280     0.2306 H       
  55 H55           -3.9903    -1.3291    -1.3760 H       
  56 H56           -1.9172    -0.0044    -1.4789 H       
@<TRIPOS>BOND
   1    1    2 am
   2    1    9 1
   3    1   21 1
   4    2    3 1
   5    2   10 2
   6    3    4 1
   7    3   18 1
   8    3   35 1
   9    4    5 ar
  10    4    9 ar
  11    5    6 ar
  12    5   36 1
  13    6    7 ar
  14    6   37 1
  15    7    8 ar
  16    7   38 1
  17    8    9 ar
  18    8   34 1
  19   11   12 1
  20   11   15 1
  21   12   13 1
  22   12   39 1
  23   12   40 1
  24   13   14 1
  25   13   41 1
  26   13   42 1
  27   14   15 ar
  28   14   19 ar
  29   15   16 ar
  30   16   17 ar
  31   16   43 1
  32   17   18 ar
  33   17   20 1
  34   18   19 ar
  35   19   44 1
  36   20   45 1
  37   21   22 1
  38   21   28 1
  39   21   46 1
  40   22   23 ar
  41   22   27 ar
  42   23   24 ar
  43   23   47 1
  44   24   25 ar
  45   24   48 1
  46   25   26 ar
  47   25   49 1
  48   26   27 ar
  49   26   50 1
  50   27   51 1
  51   28   29 ar
  52   28   33 ar
  53   29   30 ar
  54   29   52 1
  55   30   31 ar
  56   30   53 1
  57   31   32 ar
  58   31   54 1
  59   32   33 ar
  60   32   55 1
  61   33   56 1

#	End of record

