#	Name: ASD03091591
#	Creating user name:	WinNT
#	Creation time:	15. 06. 2019 20:31

#	Modifying user name:	WinNT
#	Modification time:	15. 06. 2019 20:31

#	Program:	/corina/corina34_cracker 3.40 0067  02.08.2006

@<TRIPOS>MOLECULE
ASD03091591
  18   19    0    0    0
SMALL
NO_CHARGES


@<TRIPOS>ATOM
   1 O1            -0.0162     1.3453     0.0094 O.3     
   2 C2             0.0021    -0.0041     0.0020 C.2     
   3 C3             1.2874    -0.4452    -0.0126 C.2     
   4 C4             2.1265     0.7523    -0.0142 C.ar    
   5 C5             1.2367     1.8423     0.0001 C.ar    
   6 C6             1.7459     3.1362     0.0018 C.ar    
   7 C7             3.1093     3.3408    -0.0109 C.ar    
   8 C8             3.9887     2.2644    -0.0251 C.ar    
   9 C9             3.5062     0.9734    -0.0265 C.ar    
  10 C10           -1.1868    -0.8653     0.0087 C.2     
  11 O11           -1.0615    -2.0746     0.0015 O.2     
  12 O12           -2.4180    -0.3151     0.0229 O.3     
  13 F13            5.3215     2.4845    -0.0374 F       
  14 Br14           0.5682     4.6156     0.0209 Br      
  15 H15            1.6214    -1.4722    -0.0210 H       
  16 H16            3.4983     4.3483    -0.0103 H       
  17 H17            4.1903     0.1377    -0.0379 H       
  18 H18           -3.1703    -0.9226     0.0268 H       
@<TRIPOS>BOND
   1    1    2 1
   2    1    5 1
   3    2    3 2
   4    2   10 1
   5    3    4 1
   6    3   15 1
   7    4    5 ar
   8    4    9 ar
   9    5    6 ar
  10    6    7 ar
  11    6   14 1
  12    7    8 ar
  13    7   16 1
  14    8    9 ar
  15    8   13 1
  16    9   17 1
  17   10   11 2
  18   10   12 1
  19   12   18 1

#	End of record

