#	Name: ASD01410718
#	Creating user name:	WinNT
#	Creation time:	15. 06. 2019 19:18

#	Modifying user name:	WinNT
#	Modification time:	15. 06. 2019 19:18

#	Program:	/corina/corina34_cracker 3.40 0067  02.08.2006

@<TRIPOS>MOLECULE
ASD01410718
  83   88    0    0    0
SMALL
NO_CHARGES


@<TRIPOS>ATOM
   1 N1            -0.0205     1.6570     0.0112 N.am    
   2 O2            -3.4374     1.2414    -0.4077 O.3     
   3 N3            -5.4627    -0.9529    -1.8604 N.am    
   4 S4             0.0021    -0.0041     0.0020 S.o2    
   5 O5            -0.8663    -0.3951    -1.0472 O.2     
   6 N6             1.5621    -0.4671    -0.4061 N.am    
   7 O7            -0.1893    -0.4070     1.3540 O.2     
   8 C8             1.8375    -0.8930    -1.6439 C.2     
   9 O9             3.0478    -1.0599    -1.7888 O.2     
  10 C10            1.1218    -1.2452    -2.8424 C.ar    
  11 C11            1.8732    -1.0380    -4.0280 C.ar    
  12 C12            1.3901    -1.2378    -5.2813 C.ar    
  13 C13            0.0572    -1.6703    -5.3527 C.ar    
  14 C14           -0.6888    -1.9612    -4.1903 C.ar    
  15 C15           -0.1593    -1.7868    -2.9106 C.ar    
  16 C16           -0.7915    -1.8750    -6.4484 C.2     
  17 C17           -1.9926    -2.2600    -5.9889 C.2     
  18 N18           -1.9298    -2.3671    -4.6037 N.pl3   
  19 C19           -0.3780    -1.6839    -7.8876 C.3     
  20 C20            0.0647    -0.2353    -8.1031 C.3     
  21 C21            0.7827    -2.6258    -8.2140 C.3     
  22 C22            1.2019    -2.4322    -9.6727 C.3     
  23 C23            1.6445    -0.9836    -9.8881 C.3     
  24 C24            0.4838    -0.0417    -9.5617 C.3     
  25 C25           -3.2332    -2.5619    -6.7189 C.ar    
  26 C26           -4.4425    -2.0661    -6.2307 C.ar    
  27 C27           -4.4190    -1.2094    -5.0008 C.3     
  28 C28           -4.2412    -2.0396    -3.7400 C.3     
  29 C29           -2.9803    -2.8467    -3.7115 C.3     
  30 C30           -4.3066    -1.1003    -2.5619 C.2     
  31 O31           -3.3080    -0.4757    -2.2477 O.2     
  32 C32           -3.2414    -3.3471    -7.8733 C.ar    
  33 C33           -4.4296    -3.5955    -8.5266 C.ar    
  34 C34           -5.6230    -3.0979    -8.0350 C.ar    
  35 C35           -5.6358    -2.3324    -6.8738 C.ar    
  36 O36           -6.7865    -3.3435    -8.6888 O.3     
  37 C37           -6.7075    -4.1252    -9.8824 C.3     
  38 C38           -4.3989     0.2440     0.0012 C.3     
  39 C39           -5.5270     0.2904    -1.0397 C.3     
  40 C40           -2.4244     1.4832     0.5673 C.3     
  41 C41           -1.3082     2.3596     0.0176 C.3     
  42 C42            1.2369     2.4152     0.0032 C.3     
  43 C43           -6.5869    -1.8857    -1.8873 C.3     
  44 H44            2.2828    -0.4248     0.2681 H       
  45 H45            2.8926    -0.6920    -3.9291 H       
  46 H46            1.9976    -1.0641    -6.1580 H       
  47 H47           -0.7106    -2.0868    -2.0282 H       
  48 H48           -1.2216    -1.9071    -8.5407 H       
  49 H49           -0.7622     0.4357    -7.8705 H       
  50 H50            0.9083    -0.0122    -7.4499 H       
  51 H51            1.6264    -2.4027    -7.5609 H       
  52 H52            0.4674    -3.6578    -8.0605 H       
  53 H53            2.0288    -3.1032    -9.9052 H       
  54 H54            0.3582    -2.6553   -10.3258 H       
  55 H55            2.4882    -0.7605    -9.2350 H       
  56 H56            1.9431    -0.8457   -10.9273 H       
  57 H57           -0.3598    -0.2648   -10.2149 H       
  58 H58            0.7992     0.9903    -9.7152 H       
  59 H59           -3.5984    -0.4993    -5.0792 H       
  60 H60           -5.3555    -0.6545    -4.9338 H       
  61 H61           -5.0839    -2.7440    -3.6872 H       
  62 H62           -3.2283    -3.8738    -3.9946 H       
  63 H63           -2.5986    -2.8537    -2.6882 H       
  64 H64           -2.3158    -3.7674    -8.2437 H       
  65 H65           -4.4276    -4.1787    -9.4356 H       
  66 H66           -6.5630    -1.9482    -6.4828 H       
  67 H67           -6.2907    -5.1047    -9.6483 H       
  68 H68           -7.7053    -4.2462   -10.3042 H       
  69 H69           -6.0662    -3.6208   -10.6052 H       
  70 H70           -3.9347    -0.7422     0.0091 H       
  71 H71           -4.7885     0.4805     0.9881 H       
  72 H72           -5.3877     1.1562    -1.6940 H       
  73 H73           -6.4942     0.3516    -0.5429 H       
  74 H74           -2.8847     2.0047     1.4089 H       
  75 H75           -2.0334     0.5348     0.9224 H       
  76 H76           -1.2281     3.2535     0.6431 H       
  77 H77           -1.5608     2.6623    -1.0004 H       
  78 H78            2.0786     1.7227    -0.0085 H       
  79 H79            1.2743     3.0476    -0.8838 H       
  80 H80            1.2913     3.0380     0.8961 H       
  81 H81           -6.4553    -2.6359    -1.1075 H       
  82 H82           -7.5151    -1.3410    -1.7145 H       
  83 H83           -6.6290    -2.3760    -2.8599 H       
@<TRIPOS>BOND
   1    1    4 am
   2    1   42 1
   3    1   41 1
   4    2   38 1
   5    2   40 1
   6    3   30 am
   7    3   43 1
   8    3   39 1
   9    4    5 2
  10    4    6 am
  11    4    7 2
  12    6    8 am
  13    6   44 1
  14    8    9 2
  15    8   10 1
  16   10   11 ar
  17   10   15 ar
  18   11   12 ar
  19   11   45 1
  20   12   13 ar
  21   12   46 1
  22   13   14 ar
  23   13   16 1
  24   14   15 ar
  25   14   18 1
  26   15   47 1
  27   16   17 2
  28   16   19 1
  29   17   18 1
  30   17   25 1
  31   18   29 1
  32   19   20 1
  33   19   21 1
  34   19   48 1
  35   20   24 1
  36   20   49 1
  37   20   50 1
  38   21   22 1
  39   21   51 1
  40   21   52 1
  41   22   23 1
  42   22   53 1
  43   22   54 1
  44   23   24 1
  45   23   55 1
  46   23   56 1
  47   24   57 1
  48   24   58 1
  49   25   26 ar
  50   25   32 ar
  51   26   27 1
  52   26   35 ar
  53   27   28 1
  54   27   59 1
  55   27   60 1
  56   28   29 1
  57   28   30 1
  58   28   61 1
  59   29   62 1
  60   29   63 1
  61   30   31 2
  62   32   33 ar
  63   32   64 1
  64   33   34 ar
  65   33   65 1
  66   34   35 ar
  67   34   36 1
  68   35   66 1
  69   36   37 1
  70   37   67 1
  71   37   68 1
  72   37   69 1
  73   38   39 1
  74   38   70 1
  75   38   71 1
  76   39   72 1
  77   39   73 1
  78   40   41 1
  79   40   74 1
  80   40   75 1
  81   41   76 1
  82   41   77 1
  83   42   78 1
  84   42   79 1
  85   42   80 1
  86   43   81 1
  87   43   82 1
  88   43   83 1

#	End of record

