#	Name: ASD01811824
#	Creating user name:	WinNT
#	Creation time:	15. 06. 2019 19:27

#	Modifying user name:	WinNT
#	Modification time:	15. 06. 2019 19:27

#	Program:	/corina/corina34_cracker 3.40 0067  02.08.2006

@<TRIPOS>MOLECULE
ASD01811824
  51   54    0    0    0
SMALL
NO_CHARGES


@<TRIPOS>ATOM
   1 C1            -0.0167     1.3816     0.0096 C.ar    
   2 C2             0.0021    -0.0041     0.0020 C.ar    
   3 C3            -1.1845    -0.7157     0.0095 C.ar    
   4 C4            -2.3943    -0.0531     0.0241 C.ar    
   5 C5            -2.4221     1.3429     0.0318 C.ar    
   6 C6            -1.2191     2.0523     0.0305 C.ar    
   7 Cl7            1.4742     2.2709     0.0002 Cl      
   8 C8             1.3183    -0.7377    -0.0149 C.3     
   9 C9            -1.1551    -2.2224     0.0011 C.3     
  10 C10           -1.0080    -2.7298     1.4125 C.ar    
  11 C11           -2.1329    -2.9861     2.1745 C.ar    
  12 C12           -2.0008    -3.4513     3.4685 C.ar    
  13 C13           -0.7380    -3.6613     4.0033 C.ar    
  14 C14            0.3891    -3.4033     3.2367 C.ar    
  15 C15            0.2515    -2.9436     1.9413 C.ar    
  16 O16           -0.6054    -4.1184     5.2763 O.3     
  17 C17            0.7250    -4.3114     5.7609 C.3     
  18 C18           -3.5323     2.3147     0.0472 C.2     
  19 N19           -3.0526     3.5704     0.0495 N.am    
  20 C20           -1.5863     3.5151     0.0400 C.3     
  21 O21           -4.7120     2.0216     0.0560 O.2     
  22 C22           -3.8604     4.7924     0.0627 C.3     
  23 C23           -4.7430     4.8274     1.3227 C.3     
  24 C24           -6.2062     4.8608     0.8351 C.3     
  25 C25           -6.1477     4.2442    -0.5845 C.3     
  26 C26           -4.8181     4.8059    -1.1466 C.3     
  27 O27           -4.4555     5.9986     2.0893 O.3     
  28 H28           -3.3179    -0.6128     0.0291 H       
  29 H29            1.6458    -0.9201     1.0086 H       
  30 H30            1.1973    -1.6892    -0.5327 H       
  31 H31            2.0639    -0.1345    -0.5329 H       
  32 H32           -2.0833    -2.6016    -0.4264 H       
  33 H33           -0.3120    -2.5660    -0.5982 H       
  34 H34           -3.1157    -2.8221     1.7578 H       
  35 H35           -2.8797    -3.6510     4.0634 H       
  36 H36            1.3732    -3.5660     3.6508 H       
  37 H37            1.1286    -2.7427     1.3440 H       
  38 H38            0.6883    -4.6778     6.7869 H       
  39 H39            1.2383    -5.0398     5.1332 H       
  40 H40            1.2631    -3.3640     5.7325 H       
  41 H41           -1.1876     3.9961     0.9332 H       
  42 H42           -1.1988     4.0038    -0.8539 H       
  43 H43           -3.2129     5.6689     0.0359 H       
  44 H44           -4.5702     3.9351     1.9244 H       
  45 H45           -6.8393     4.2587     1.4868 H       
  46 H46           -6.5700     5.8873     0.7905 H       
  47 H47           -6.1157     3.1559    -0.5319 H       
  48 H48           -6.9931     4.5783    -1.1859 H       
  49 H49           -4.9578     5.8235    -1.5113 H       
  50 H50           -4.4383     4.1636    -1.9412 H       
  51 H51           -4.9805     6.0784     2.8975 H       
@<TRIPOS>BOND
   1    1    2 ar
   2    1    7 1
   3    1    6 ar
   4    2    3 ar
   5    2    8 1
   6    3    4 ar
   7    3    9 1
   8    4    5 ar
   9    4   28 1
  10    5    6 ar
  11    5   18 1
  12    6   20 1
  13    8   29 1
  14    8   30 1
  15    8   31 1
  16    9   10 1
  17    9   32 1
  18    9   33 1
  19   10   11 ar
  20   10   15 ar
  21   11   12 ar
  22   11   34 1
  23   12   13 ar
  24   12   35 1
  25   13   14 ar
  26   13   16 1
  27   14   15 ar
  28   14   36 1
  29   15   37 1
  30   16   17 1
  31   17   38 1
  32   17   39 1
  33   17   40 1
  34   18   19 am
  35   18   21 2
  36   19   20 1
  37   19   22 1
  38   20   41 1
  39   20   42 1
  40   22   23 1
  41   22   26 1
  42   22   43 1
  43   23   24 1
  44   23   27 1
  45   23   44 1
  46   24   25 1
  47   24   45 1
  48   24   46 1
  49   25   26 1
  50   25   47 1
  51   25   48 1
  52   26   49 1
  53   26   50 1
  54   27   51 1

#	End of record

