#	Name: ASD08151000
#	Creating user name:	WinNT
#	Creation time:	15. 06. 2019 21:16

#	Modifying user name:	WinNT
#	Modification time:	15. 06. 2019 21:16

#	Program:	/corina/corina34_cracker 3.40 0067  02.08.2006

@<TRIPOS>MOLECULE
ASD08151000
  35   37    0    0    0
SMALL
NO_CHARGES


@<TRIPOS>ATOM
   1 C1            -0.0168     1.3905     0.0097 C.ar    
   2 C2             0.0021    -0.0041     0.0020 C.ar    
   3 C3             1.2347    -0.6636    -0.0133 C.ar    
   4 C4             2.3898     0.1030    -0.0203 C.ar    
   5 C5             2.2854     1.4843    -0.0119 C.ar    
   6 N6             1.1070     2.0769     0.0026 N.ar    
   7 F7             3.6035    -0.4904    -0.0347 F       
   8 C8            -1.2635    -0.7741     0.0105 C.ar    
   9 C9            -2.1338    -0.7005    -1.0627 C.ar    
  10 C10           -3.3234    -1.4201    -1.0622 C.ar    
  11 C11           -3.6652    -2.2152    -0.0103 C.ar    
  12 C12           -2.8107    -2.3192     1.1005 C.ar    
  13 C13           -3.1407    -3.1320     2.1990 C.ar    
  14 C14           -2.2903    -3.2097     3.2589 C.ar    
  15 C15           -1.0949    -2.4942     3.2727 C.ar    
  16 C16           -0.7435    -1.6971     2.2256 C.ar    
  17 C17           -1.5924    -1.5971     1.1137 C.ar    
  18 C18           -1.7889     0.1690    -2.2442 C.3     
  19 C19           -0.8936    -0.6121    -3.2082 C.3     
  20 N20           -3.0189     0.5666    -2.9335 N.2     
  21 N21           -2.9728     1.2885    -3.7938 N.1     
  22 N22           -2.9266     2.0104    -4.6542 N.pl3   
  23 H23           -0.9623     1.9125     0.0170 H       
  24 H24            1.2858    -1.7424    -0.0193 H       
  25 H25            3.1827     2.0853    -0.0173 H       
  26 H26           -3.9880    -1.3471    -1.9102 H       
  27 H27           -4.5941    -2.7659    -0.0298 H       
  28 H28           -4.0644    -3.6916     2.2021 H       
  29 H29           -2.5460    -3.8348     4.1017 H       
  30 H30           -0.4375    -2.5723     4.1261 H       
  31 H31            0.1860    -1.1478     2.2498 H       
  32 H32           -1.2620     1.0587    -1.8990 H       
  33 H33           -0.6441     0.0169    -4.0627 H       
  34 H34            0.0215    -0.9079    -2.6953 H       
  35 H35           -1.4205    -1.5017    -3.5533 H       
@<TRIPOS>BOND
   1    1    2 ar
   2    1    6 ar
   3    1   23 1
   4    2    3 ar
   5    2    8 1
   6    3    4 ar
   7    3   24 1
   8    4    5 ar
   9    4    7 1
  10    5    6 ar
  11    5   25 1
  12    8    9 ar
  13    8   17 ar
  14    9   10 ar
  15    9   18 1
  16   10   11 ar
  17   10   26 1
  18   11   12 ar
  19   11   27 1
  20   12   13 ar
  21   12   17 ar
  22   13   14 ar
  23   13   28 1
  24   14   15 ar
  25   14   29 1
  26   15   16 ar
  27   15   30 1
  28   16   17 ar
  29   16   31 1
  30   18   19 1
  31   18   20 1
  32   18   32 1
  33   19   33 1
  34   19   34 1
  35   19   35 1
  36   20   21 2
  37   21   22 2

#	End of record

