#	Name: ASD01680157
#	Creating user name:	WinNT
#	Creation time:	15. 06. 2019 19:22

#	Modifying user name:	WinNT
#	Modification time:	15. 06. 2019 19:22

#	Program:	/corina/corina34_cracker 3.40 0067  02.08.2006

@<TRIPOS>MOLECULE
ASD01680157
  87   90    0    0    0
SMALL
NO_CHARGES


@<TRIPOS>ATOM
   1 N1             0.0443     1.4003     0.1639 N.am    
   2 C2             0.0202    -0.0651     0.0040 C.3     
   3 C3             1.4291    -0.5353     0.4437 C.3     
   4 C4             2.3236     0.6096    -0.1008 C.3     
   5 C5             1.4389     1.8597     0.0895 C.3     
   6 C6            -1.0340     2.1887     0.3429 C.2     
   7 O7            -2.1506     1.7126     0.2882 O.2     
   8 O8            -0.8739     3.5040     0.5822 O.3     
   9 C9            -1.0521    -0.6815     0.9047 C.3     
  10 N10           -0.8422    -0.2404     2.2859 N.pl3   
  11 C11           -1.7546    -0.5918     3.2739 C.ar    
  12 C12           -2.8650    -1.3628     2.9444 C.ar    
  13 C13           -3.7646    -1.7052     3.9374 C.ar    
  14 C14           -3.5230    -1.2636     5.2317 C.ar    
  15 C15           -2.4009    -0.5017     5.4877 C.ar    
  16 N16           -1.5563    -0.1946     4.5212 N.ar    
  17 O17            3.5255     0.7196     0.6643 O.3     
  18 C18            4.6461     1.2020    -0.0798 C.3     
  19 C19            5.8521     1.2778     0.8208 C.2     
  20 N20            7.0319     1.7088     0.3322 N.am    
  21 O21            5.7609     0.9509     1.9851 O.2     
  22 C22            8.2042     1.7825     1.2076 C.3     
  23 C23            9.4040     2.2989     0.4109 C.3     
  24 N24            9.0607     3.5785    -0.2145 N.am    
  25 C25            9.7077     3.9801    -1.3265 C.2     
  26 C26            9.3617     5.2694    -1.9566 C.ar    
  27 C27           10.0316     5.6869    -3.1093 C.ar    
  28 C28            9.7054     6.8944    -3.6977 C.ar    
  29 C29            8.7105     7.6946    -3.1424 C.ar    
  30 C30            8.0417     7.2810    -1.9934 C.ar    
  31 C31            8.3598     6.0714    -1.4047 C.ar    
  32 O32           10.5763     3.2806    -1.8106 O.2     
  33 O33            7.0710     8.0653    -1.4528 O.3     
  34 C34            6.4260     7.5794    -0.2739 C.3     
  35 O35            8.3920     8.8815    -3.7225 O.3     
  36 C36            7.3676     8.8625    -4.7186 C.3     
  37 O37           10.3572     7.3014    -4.8199 O.3     
  38 C38           11.3668     6.4313    -5.3353 C.3     
  39 C39           10.5770     2.4913     1.3373 C.2     
  40 O40           11.0750     3.5851     1.4624 O.2     
  41 O41           11.0684     1.4477     2.0236 O.3     
  42 C42           -2.0796     4.2922     0.7649 C.3     
  43 C43           -1.7060     5.7297     1.0205 C.ar    
  44 C44           -1.5702     6.6073    -0.0389 C.ar    
  45 C45           -1.2275     7.9258     0.1955 C.ar    
  46 C46           -1.0210     8.3668     1.4893 C.ar    
  47 C47           -1.1577     7.4894     2.5487 C.ar    
  48 C48           -1.5046     6.1719     2.3146 C.ar    
  49 H49           -0.1602    -0.3301    -1.0378 H       
  50 H50            1.4976    -0.6018     1.5295 H       
  51 H51            1.6863    -1.4869    -0.0214 H       
  52 H52            2.5496     0.4540    -1.1557 H       
  53 H53            1.5624     2.5337    -0.7582 H       
  54 H54            1.7111     2.3693     1.0138 H       
  55 H55           -2.0379    -0.3618     0.5670 H       
  56 H56           -0.9863    -1.7684     0.8564 H       
  57 H57           -0.0666     0.2970     2.5108 H       
  58 H58           -3.0223    -1.6890     1.9269 H       
  59 H59           -4.6357    -2.3023     3.7113 H       
  60 H60           -4.2064    -1.5134     6.0298 H       
  61 H61           -2.2091    -0.1562     6.4929 H       
  62 H62            4.8524     0.5229    -0.9070 H       
  63 H63            4.4222     2.1943    -0.4715 H       
  64 H64            7.1048     1.9703    -0.5990 H       
  65 H65            7.9979     2.4616     2.0349 H       
  66 H66            8.4281     0.7902     1.5993 H       
  67 H67            9.6658     1.5757    -0.3614 H       
  68 H68            8.3677     4.1366     0.1718 H       
  69 H69           10.8039     5.0669    -3.5400 H       
  70 H70            7.8374     5.7488    -0.5162 H       
  71 H71            5.6751     8.2990     0.0523 H       
  72 H72            5.9452     6.6252    -0.4898 H       
  73 H73            7.1656     7.4432     0.5151 H       
  74 H74            7.2122     9.8719    -5.0992 H       
  75 H75            7.6683     8.2080    -5.5367 H       
  76 H76            6.4408     8.4930    -4.2796 H       
  77 H77           12.1418     6.2877    -4.5823 H       
  78 H78           10.9225     5.4685    -5.5876 H       
  79 H79           11.8063     6.8741    -6.2291 H       
  80 H80           11.8214     1.6201     2.6053 H       
  81 H81           -2.6936     4.2306    -0.1335 H       
  82 H82           -2.6407     3.9059     1.6158 H       
  83 H83           -1.7315     6.2628    -1.0496 H       
  84 H84           -1.1207     8.6114    -0.6322 H       
  85 H85           -0.7525     9.3968     1.6723 H       
  86 H86           -0.9960     7.8338     3.5594 H       
  87 H87           -1.6150     5.4873     3.1425 H       
@<TRIPOS>BOND
   1    1    2 1
   2    1    5 1
   3    1    6 am
   4    2    3 1
   5    2    9 1
   6    2   49 1
   7    3    4 1
   8    3   50 1
   9    3   51 1
  10    4    5 1
  11    4   17 1
  12    4   52 1
  13    5   53 1
  14    5   54 1
  15    6    7 2
  16    6    8 1
  17    8   42 1
  18    9   10 1
  19    9   55 1
  20    9   56 1
  21   10   11 1
  22   10   57 1
  23   11   12 ar
  24   11   16 ar
  25   12   13 ar
  26   12   58 1
  27   13   14 ar
  28   13   59 1
  29   14   15 ar
  30   14   60 1
  31   15   16 ar
  32   15   61 1
  33   17   18 1
  34   18   19 1
  35   18   62 1
  36   18   63 1
  37   19   20 am
  38   19   21 2
  39   20   22 1
  40   20   64 1
  41   22   23 1
  42   22   65 1
  43   22   66 1
  44   23   24 1
  45   23   39 1
  46   23   67 1
  47   24   25 am
  48   24   68 1
  49   25   26 1
  50   25   32 2
  51   26   27 ar
  52   26   31 ar
  53   27   28 ar
  54   27   69 1
  55   28   29 ar
  56   28   37 1
  57   29   30 ar
  58   29   35 1
  59   30   31 ar
  60   30   33 1
  61   31   70 1
  62   33   34 1
  63   34   71 1
  64   34   72 1
  65   34   73 1
  66   35   36 1
  67   36   74 1
  68   36   75 1
  69   36   76 1
  70   37   38 1
  71   38   77 1
  72   38   78 1
  73   38   79 1
  74   39   40 2
  75   39   41 1
  76   41   80 1
  77   42   43 1
  78   42   81 1
  79   42   82 1
  80   43   44 ar
  81   43   48 ar
  82   44   45 ar
  83   44   83 1
  84   45   46 ar
  85   45   84 1
  86   46   47 ar
  87   46   85 1
  88   47   48 ar
  89   47   86 1
  90   48   87 1

#	End of record

