#	Name: ASD09890009
#	Creating user name:	WinNT
#	Creation time:	15. 06. 2019 21:24

#	Modifying user name:	WinNT
#	Modification time:	15. 06. 2019 21:24

#	Program:	/corina/corina34_cracker 3.40 0067  02.08.2006

@<TRIPOS>MOLECULE
ASD09890009
  45   48    0    0    0
SMALL
NO_CHARGES


@<TRIPOS>ATOM
   1 C1            -0.0167     1.3771     0.0096 C.ar    
   2 C2             0.0021    -0.0041     0.0020 C.ar    
   3 C3             1.2080    -0.6804    -0.0127 C.ar    
   4 C4             2.3983     0.0232    -0.0203 C.ar    
   5 C5             2.3858     1.4044    -0.0132 C.ar    
   6 C6             1.1767     2.0861     0.0020 C.ar    
   7 N7             1.1608     3.4886     0.0092 N.pl3   
   8 C8             1.6008     4.3209    -0.9762 C.2     
   9 C9             0.6967     4.3005     1.0007 C.2     
  10 N10            0.8682     5.5319     0.6033 N.2     
  11 N11            1.4028     5.5440    -0.5656 N.2     
  12 C12            2.2033     3.9064    -2.2938 C.3     
  13 O13            1.1672     3.7640    -3.2676 O.3     
  14 C14            1.5438     3.3919    -4.5193 C.ar    
  15 C15            0.5897     3.2349    -5.5141 C.ar    
  16 C16            0.9750     2.8566    -6.7856 C.ar    
  17 C17            2.3104     2.6345    -7.0672 C.ar    
  18 C18            3.2632     2.7899    -6.0774 C.ar    
  19 C19            2.8836     3.1741    -4.8058 C.ar    
  20 C20            0.0968     3.8589     2.3107 C.3     
  21 C21            1.2038     3.7209     3.3578 C.3     
  22 C22            0.6818     3.3912     4.7662 C.3     
  23 C23            1.8807     2.4378     4.9019 C.3     
  24 C24            1.8735     2.3366     3.3675 C.3     
  25 H25           -0.9589     1.9048     0.0170 H       
  26 H26           -0.9261    -0.5562     0.0079 H       
  27 H27            1.2203    -1.7603    -0.0179 H       
  28 H28            3.3388    -0.5077    -0.0314 H       
  29 H29            3.3158     1.9534    -0.0187 H       
  30 H30            2.9110     4.6665    -2.6248 H       
  31 H31            2.7217     2.9552    -2.1731 H       
  32 H32           -0.4535     3.4079    -5.2945 H       
  33 H33            0.2326     2.7339    -7.5603 H       
  34 H34            2.6096     2.3388    -8.0619 H       
  35 H35            4.3055     2.6152    -6.2996 H       
  36 H36            3.6282     3.2954    -4.0330 H       
  37 H37           -0.6298     4.5992     2.6454 H       
  38 H38           -0.3992     2.8974     2.1774 H       
  39 H39            1.9114     4.5496     3.3373 H       
  40 H40            0.7161     4.2365     5.4535 H       
  41 H41           -0.2825     2.8829     4.7666 H       
  42 H42            2.7746     2.9149     5.3038 H       
  43 H43            1.6386     1.5003     5.4025 H       
  44 H44            1.2350     1.5400     2.9855 H       
  45 H45            2.8698     2.3305     2.9256 H       
@<TRIPOS>BOND
   1    1    2 ar
   2    1    6 ar
   3    1   25 1
   4    2    3 ar
   5    2   26 1
   6    3    4 ar
   7    3   27 1
   8    4    5 ar
   9    4   28 1
  10    5    6 ar
  11    5   29 1
  12    6    7 1
  13    7    8 1
  14    7    9 1
  15    8   12 1
  16    8   11 2
  17    9   10 2
  18    9   20 1
  19   10   11 1
  20   12   13 1
  21   12   30 1
  22   12   31 1
  23   13   14 1
  24   14   15 ar
  25   14   19 ar
  26   15   16 ar
  27   15   32 1
  28   16   17 ar
  29   16   33 1
  30   17   18 ar
  31   17   34 1
  32   18   19 ar
  33   18   35 1
  34   19   36 1
  35   20   21 1
  36   20   37 1
  37   20   38 1
  38   21   22 1
  39   21   24 1
  40   21   39 1
  41   22   23 1
  42   22   40 1
  43   22   41 1
  44   23   24 1
  45   23   42 1
  46   23   43 1
  47   24   44 1
  48   24   45 1

#	End of record

