#	Name: ASD05430676
#	Creating user name:	WinNT
#	Creation time:	15. 06. 2019 21:00

#	Modifying user name:	WinNT
#	Modification time:	15. 06. 2019 21:00

#	Program:	/corina/corina34_cracker 3.40 0067  02.08.2006

@<TRIPOS>MOLECULE
ASD05430676
  21   21    0    0    0
SMALL
NO_CHARGES


@<TRIPOS>ATOM
   1 C1            -0.0167     1.3776     0.0096 C.ar    
   2 C2             0.0021    -0.0041     0.0020 C.ar    
   3 C3            -1.1849    -0.7125     0.0091 C.ar    
   4 C4            -2.4139     1.3459     0.0439 C.ar    
   5 C5            -1.2249     2.0542     0.0306 C.ar    
   6 C6             1.2782     2.1485     0.0014 C.3     
   7 C7            -2.3940    -0.0382     0.0243 C.ar    
   8 C8             2.0973     1.7830     1.2409 C.3     
   9 C9             2.0734     1.7964    -1.2574 C.3     
  10 F10           -1.2428     3.4050     0.0497 F       
  11 F11           -3.5538    -0.7309     0.0372 F       
  12 H12            0.9448    -0.5309    -0.0098 H       
  13 H13           -1.1690    -1.7923     0.0024 H       
  14 H14           -3.3565     1.8727     0.0606 H       
  15 H15            1.0648     3.2174     0.0092 H       
  16 H16            3.0338     2.3406     1.2350 H       
  17 H17            1.5307     2.0339     2.1377 H       
  18 H18            2.3107     0.7141     1.2331 H       
  19 H19            1.4899     2.0568    -2.1405 H       
  20 H20            3.0100     2.3540    -1.2634 H       
  21 H21            2.2868     0.7275    -1.2652 H       
@<TRIPOS>BOND
   1    1    2 ar
   2    1    6 1
   3    1    5 ar
   4    2    3 ar
   5    2   12 1
   6    3    7 ar
   7    3   13 1
   8    4    5 ar
   9    4    7 ar
  10    4   14 1
  11    5   10 1
  12    6    8 1
  13    6    9 1
  14    6   15 1
  15    7   11 1
  16    8   16 1
  17    8   17 1
  18    8   18 1
  19    9   19 1
  20    9   20 1
  21    9   21 1

#	End of record

