#	Name: ASD01913114
#	Creating user name:	WinNT
#	Creation time:	15. 06. 2019 20:00

#	Modifying user name:	WinNT
#	Modification time:	15. 06. 2019 20:00

#	Program:	/corina/corina34_cracker 3.40 0067  02.08.2006

@<TRIPOS>MOLECULE
ASD01913114
  25   26    0    0    0
SMALL
NO_CHARGES


@<TRIPOS>ATOM
   1 N1            -0.0169     1.3965     0.0097 N.2     
   2 N2             0.0021    -0.0041     0.0020 N.pl3   
   3 C3             1.2284     1.8226     0.0001 C.2     
   4 C4             2.0722     0.6950    -0.0140 C.2     
   5 C5             1.2909    -0.4070    -0.0125 C.2     
   6 C6             1.7727    -1.8348    -0.0243 C.3     
   7 C7             1.6660     3.2408     0.0031 C.ar    
   8 C8             3.0183     3.5547    -0.1136 C.ar    
   9 C9             3.4209     4.8747    -0.1109 C.ar    
  10 C10            2.4826     5.8868     0.0082 C.ar    
  11 C11            1.1366     5.5790     0.1246 C.ar    
  12 C12            0.7250     4.2622     0.1169 C.ar    
  13 C13            0.1205     6.6842     0.2543 C.3     
  14 F14            2.8810     7.1777     0.0114 F       
  15 H15           -0.7755    -0.5839     0.0063 H       
  16 H16            3.1521     0.7089    -0.0249 H       
  17 H17            1.8984    -2.1844     1.0005 H       
  18 H18            1.0409    -2.4610    -0.5346 H       
  19 H19            2.7273    -1.8918    -0.5473 H       
  20 H20            3.7505     2.7662    -0.2058 H       
  21 H21            4.4690     5.1190    -0.2013 H       
  22 H22           -0.3243     4.0231     0.2077 H       
  23 H23           -0.2203     6.9828    -0.7371 H       
  24 H24           -0.7286     6.3304     0.8390 H       
  25 H25            0.5753     7.5390     0.7549 H       
@<TRIPOS>BOND
   1    1    2 1
   2    1    3 2
   3    2    5 1
   4    2   15 1
   5    3    4 1
   6    3    7 1
   7    4    5 2
   8    4   16 1
   9    5    6 1
  10    6   17 1
  11    6   18 1
  12    6   19 1
  13    7    8 ar
  14    7   12 ar
  15    8    9 ar
  16    8   20 1
  17    9   10 ar
  18    9   21 1
  19   10   11 ar
  20   10   14 1
  21   11   12 ar
  22   11   13 1
  23   12   22 1
  24   13   23 1
  25   13   24 1
  26   13   25 1

#	End of record

