#	Name: ASD02508331
#	Creating user name:	WinNT
#	Creation time:	15. 06. 2019 20:24

#	Modifying user name:	WinNT
#	Modification time:	15. 06. 2019 20:24

#	Program:	/corina/corina34_cracker 3.40 0067  02.08.2006

@<TRIPOS>MOLECULE
ASD02508331
  71   73    0    0    0
SMALL
NO_CHARGES


@<TRIPOS>ATOM
   1 C1             1.2705    -0.7983    -1.4668 C.ar    
   2 C2             0.0974    -0.5512    -0.7655 C.ar    
   3 C3             0.0273     0.5280     0.1066 C.ar    
   4 C4             1.1234     1.3511     0.2735 C.ar    
   5 C5             2.2899     1.1024    -0.4267 C.ar    
   6 C6             2.3632     0.0290    -1.2951 C.ar    
   7 S7             3.6860     2.1555    -0.2111 S.o2    
   8 O8             4.7291     1.6065    -1.0047 O.2     
   9 O9             3.2120     3.4864    -0.3633 O.2     
  10 C10            4.2025     2.0000     1.4663 C.ar    
  11 C11            5.0406     0.9645     1.8370 C.ar    
  12 C12            5.4473     0.8398     3.1509 C.ar    
  13 C13            5.0140     1.7562     4.1002 C.ar    
  14 C14            4.1728     2.7953     3.7246 C.ar    
  15 C15            3.7736     2.9172     2.4081 C.ar    
  16 N16           -1.0096    -1.3854    -0.9371 N.am    
  17 C17           -2.2520    -0.8481    -1.4974 C.3     
  18 S18           -0.9178    -2.9820    -0.5071 S.o2    
  19 C19           -1.2949    -3.0820     1.2111 C.ar    
  20 O20           -1.9750    -3.6427    -1.1891 O.2     
  21 O21            0.4467    -3.3557    -0.6409 O.2     
  22 C22           -2.6027    -3.2586     1.6226 C.ar    
  23 C23           -2.8985    -3.3370     2.9706 C.ar    
  24 C24           -1.8865    -3.2392     3.9072 C.ar    
  25 C25           -0.5786    -3.0634     3.4957 C.ar    
  26 C26           -0.2822    -2.9894     2.1475 C.ar    
  27 C27           -2.2092    -3.3236     5.3768 C.3     
  28 N28            5.4239     1.6325     5.4324 N.am    
  29 C29            6.6436     1.1358     5.7188 C.2     
  30 C30            7.0440     0.9015     7.1526 C.3     
  31 O31            7.4189     0.8773     4.8227 O.2     
  32 C32           -2.1772    -0.8778    -3.0253 C.3     
  33 C33           -3.4747    -0.3166    -3.6105 C.3     
  34 C34            1.0484     2.5219     1.2193 C.3     
  35 C35           -3.3998    -0.3463    -5.1384 C.3     
  36 C36           -4.6973     0.2149    -5.7236 C.3     
  37 C37           -4.6225     0.1852    -7.2514 C.3     
  38 H38            1.3297    -1.6390    -2.1422 H       
  39 H39           -0.8835     0.7232     0.6532 H       
  40 H40            3.2755    -0.1622    -1.8406 H       
  41 H41            5.3772     0.2521     1.0982 H       
  42 H42            6.1013     0.0304     3.4400 H       
  43 H43            3.8341     3.5096     4.4606 H       
  44 H44            3.1197     3.7253     2.1153 H       
  45 H45           -3.0936    -1.4546    -1.1630 H       
  46 H46           -2.3881     0.1795    -1.1603 H       
  47 H47           -3.3933    -3.3351     0.8909 H       
  48 H48           -3.9204    -3.4743     3.2921 H       
  49 H49            0.2120    -2.9866     4.2274 H       
  50 H50            0.7397    -2.8521     1.8260 H       
  51 H51           -2.1600    -4.3633     5.7004 H       
  52 H52           -1.4881    -2.7328     5.9417 H       
  53 H53           -3.2128    -2.9358     5.5513 H       
  54 H54            4.8301     1.9042     6.1497 H       
  55 H55            6.2244     1.1901     7.8106 H       
  56 H56            7.2723    -0.1543     7.2982 H       
  57 H57            7.9251     1.4993     7.3861 H       
  58 H58           -1.3355    -0.2712    -3.3597 H       
  59 H59           -2.0411    -1.9054    -3.3625 H       
  60 H60           -4.3163    -0.9231    -3.2761 H       
  61 H61           -3.6107     0.7110    -3.2733 H       
  62 H62            1.3543     2.2040     2.2161 H       
  63 H63            1.7117     3.3135     0.8709 H       
  64 H64            0.0249     2.8950     1.2552 H       
  65 H65           -2.5582     0.2603    -5.4728 H       
  66 H66           -3.2638    -1.3739    -5.4755 H       
  67 H67           -5.5390    -0.3917    -5.3891 H       
  68 H68           -4.8334     1.2425    -5.3864 H       
  69 H69           -5.5468     0.5850    -7.6683 H       
  70 H70           -3.7809     0.7917    -7.5858 H       
  71 H71           -4.4864    -0.8424    -7.5886 H       
@<TRIPOS>BOND
   1    1    2 ar
   2    1    6 ar
   3    1   38 1
   4    2    3 ar
   5    2   16 1
   6    3    4 ar
   7    3   39 1
   8    4    5 ar
   9    4   34 1
  10    5    6 ar
  11    5    7 1
  12    6   40 1
  13    7    8 2
  14    7    9 2
  15    7   10 1
  16   10   11 ar
  17   10   15 ar
  18   11   12 ar
  19   11   41 1
  20   12   13 ar
  21   12   42 1
  22   13   14 ar
  23   13   28 1
  24   14   15 ar
  25   14   43 1
  26   15   44 1
  27   16   17 1
  28   16   18 am
  29   17   32 1
  30   17   45 1
  31   17   46 1
  32   18   19 1
  33   18   20 2
  34   18   21 2
  35   19   22 ar
  36   19   26 ar
  37   22   23 ar
  38   22   47 1
  39   23   24 ar
  40   23   48 1
  41   24   25 ar
  42   24   27 1
  43   25   26 ar
  44   25   49 1
  45   26   50 1
  46   27   51 1
  47   27   52 1
  48   27   53 1
  49   28   29 am
  50   28   54 1
  51   29   30 1
  52   29   31 2
  53   30   55 1
  54   30   56 1
  55   30   57 1
  56   32   33 1
  57   32   58 1
  58   32   59 1
  59   33   35 1
  60   33   60 1
  61   33   61 1
  62   34   62 1
  63   34   63 1
  64   34   64 1
  65   35   36 1
  66   35   65 1
  67   35   66 1
  68   36   37 1
  69   36   67 1
  70   36   68 1
  71   37   69 1
  72   37   70 1
  73   37   71 1

#	End of record

