#	Name: ASD01913559
#	Creating user name:	WinNT
#	Creation time:	15. 06. 2019 20:01

#	Modifying user name:	WinNT
#	Modification time:	15. 06. 2019 20:01

#	Program:	/corina/corina34_cracker 3.40 0067  02.08.2006

@<TRIPOS>MOLECULE
ASD01913559
  34   36    0    0    0
SMALL
NO_CHARGES


@<TRIPOS>ATOM
   1 C1            -0.3670    -0.7396    -2.2421 C.ar    
   2 C2            -0.6987    -0.0455    -1.0829 C.ar    
   3 C3            -0.5525     1.3343    -1.0585 C.ar    
   4 N4            -0.1062     1.9820    -2.1161 N.ar    
   5 C5             0.2169     1.3542    -3.2300 C.ar    
   6 C6             0.0983    -0.0192    -3.3305 C.ar    
   7 C7            -1.1819    -2.0674    -0.0311 C.ar    
   8 C8            -0.0745    -2.8008     0.3733 C.ar    
   9 N9            -0.0852    -4.1195     0.3436 N.ar    
  10 C10           -1.1358    -4.7986    -0.0667 C.ar    
  11 C11           -2.2901    -4.1379    -0.4907 C.ar    
  12 C12           -2.3149    -2.7390    -0.4724 C.ar    
  13 C13           -3.4673    -4.9038    -0.9516 C.2     
  14 N14           -3.4317    -6.2510    -0.9648 N.am    
  15 O15           -1.1596    -0.7092     0.0098 O.3     
  16 O16           -4.4675    -4.3186    -1.3187 O.2     
  17 C17           -4.5379    -6.9708    -1.3979 C.2     
  18 S18           -6.0047    -6.2798    -1.9403 S.3     
  19 C19           -6.6688    -7.8867    -2.2243 C.2     
  20 C20           -5.7392    -8.7837    -1.8898 C.2     
  21 N21           -4.6065    -8.2641    -1.4550 N.2     
  22 C22           -5.9627   -10.2697    -2.0043 C.3     
  23 H23           -0.4655    -1.8140    -2.2910 H       
  24 H24           -0.8073     1.8830    -0.1639 H       
  25 H25            0.5790     1.9209    -4.0751 H       
  26 H26            0.3656    -0.5250    -4.2466 H       
  27 H27            0.8092    -2.2838     0.7170 H       
  28 H28           -1.1041    -5.8781    -0.0757 H       
  29 H29           -3.1915    -2.1959    -0.7932 H       
  30 H30           -2.6336    -6.7180    -0.6718 H       
  31 H31           -7.6560    -8.1072    -2.6027 H       
  32 H32           -5.6523   -10.6087    -2.9926 H       
  33 H33           -5.3771   -10.7849    -1.2429 H       
  34 H34           -7.0204   -10.4902    -1.8601 H       
@<TRIPOS>BOND
   1    1    2 ar
   2    1    6 ar
   3    1   23 1
   4    2    3 ar
   5    2   15 1
   6    3    4 ar
   7    3   24 1
   8    4    5 ar
   9    5    6 ar
  10    5   25 1
  11    6   26 1
  12    7    8 ar
  13    7   12 ar
  14    7   15 1
  15    8    9 ar
  16    8   27 1
  17    9   10 ar
  18   10   11 ar
  19   10   28 1
  20   11   12 ar
  21   11   13 1
  22   12   29 1
  23   13   14 am
  24   13   16 2
  25   14   17 1
  26   14   30 1
  27   17   18 1
  28   17   21 2
  29   18   19 1
  30   19   20 2
  31   19   31 1
  32   20   21 1
  33   20   22 1
  34   22   32 1
  35   22   33 1
  36   22   34 1

#	End of record

