#	Name: ASD09200023
#	Creating user name:	WinNT
#	Creation time:	15. 06. 2019 21:21

#	Modifying user name:	WinNT
#	Modification time:	15. 06. 2019 21:21

#	Program:	/corina/corina34_cracker 3.40 0067  02.08.2006

@<TRIPOS>MOLECULE
ASD09200023
  40   43    0    0    0
SMALL
NO_CHARGES


@<TRIPOS>ATOM
   1 C1            -0.0178     1.4608     0.0101 C.3     
   2 N2             0.0021    -0.0041     0.0020 N.am    
   3 C3             0.0945    -0.6832     1.1625 C.2     
   4 S4             0.1872    -0.0532     2.5890 S.o     
   5 C5             0.2737    -1.5629     3.5154 C.2     
   6 C6             0.2194    -2.5260     2.5638 C.2     
   7 N7             0.1171    -2.0147     1.2940 N.am    
   8 C8             0.2603    -3.9680     2.8606 C.ar    
   9 C9             0.3599    -4.4022     4.1862 C.ar    
  10 C10            0.3977    -5.7759     4.4590 C.ar    
  11 C11            0.3344    -6.7029     3.3872 C.ar    
  12 C12            0.2342    -6.2333     2.0600 C.ar    
  13 C13            0.1932    -4.8996     1.8103 C.ar    
  14 C14            0.4982    -6.2506     5.7811 C.ar    
  15 C15            0.5335    -7.5943     6.0183 C.ar    
  16 C16            0.4716    -8.5058     4.9707 C.ar    
  17 C17            0.3729    -8.0757     3.6644 C.ar    
  18 C18            1.4190     2.0149    -0.0007 C.3     
  19 N19            1.5754     2.7907    -1.2501 N.3     
  20 C20            0.2075     3.2285    -1.6288 C.3     
  21 C21           -0.6666     1.9957    -1.2872 C.3     
  22 H22           -0.5577     1.8264     0.8835 H       
  23 H23           -0.0513    -0.4852    -0.8385 H       
  24 H24            1.4513     0.4038     2.6364 H       
  25 H25            0.3517    -1.6858     4.5856 H       
  26 H26            0.0696    -2.5971     0.5199 H       
  27 H27            0.4076    -3.6851     4.9924 H       
  28 H28            0.1858    -6.9365     1.2417 H       
  29 H29            0.1164    -4.5498     0.7914 H       
  30 H30            0.5474    -5.5536     6.6047 H       
  31 H31            0.6109    -7.9542     7.0337 H       
  32 H32            0.5015    -9.5644     5.1826 H       
  33 H33            0.3252    -8.7935     2.8588 H       
  34 H34            1.5731     2.6640     0.8613 H       
  35 H35            2.1342     1.1926     0.0178 H       
  36 H36            2.1830     3.5839    -1.1095 H       
  37 H37           -0.0975     4.0921    -1.0378 H       
  38 H38            0.1566     3.4528    -2.6943 H       
  39 H39           -0.6110     1.2514    -2.0816 H       
  40 H40           -1.6997     2.2933    -1.1075 H       
@<TRIPOS>BOND
   1    1    2 1
   2    1   18 1
   3    1   21 1
   4    1   22 1
   5    2    3 am
   6    2   23 1
   7    3    4 2
   8    3    7 am
   9    4    5 1
  10    4   24 1
  11    5    6 2
  12    5   25 1
  13    6    7 1
  14    6    8 1
  15    7   26 1
  16    8    9 ar
  17    8   13 ar
  18    9   10 ar
  19    9   27 1
  20   10   11 ar
  21   10   14 ar
  22   11   12 ar
  23   11   17 ar
  24   12   13 ar
  25   12   28 1
  26   13   29 1
  27   14   15 ar
  28   14   30 1
  29   15   16 ar
  30   15   31 1
  31   16   17 ar
  32   16   32 1
  33   17   33 1
  34   18   19 1
  35   18   34 1
  36   18   35 1
  37   19   20 1
  38   19   36 1
  39   20   21 1
  40   20   37 1
  41   20   38 1
  42   21   39 1
  43   21   40 1

#	End of record

