#	Name: ASD05513010
#	Creating user name:	WinNT
#	Creation time:	15. 06. 2019 21:01

#	Modifying user name:	WinNT
#	Modification time:	15. 06. 2019 21:01

#	Program:	/corina/corina34_cracker 3.40 0067  02.08.2006

@<TRIPOS>MOLECULE
ASD05513010
  23   24    0    0    0
SMALL
NO_CHARGES


@<TRIPOS>ATOM
   1 C1            -0.1869     1.1263    -0.9048 C.2     
   2 C2             0.0021    -0.0041     0.0020 C.2     
   3 C3             1.1428    -0.7455    -0.0623 C.2     
   4 C4             2.5222    -0.2584    -0.2596 C.ar    
   5 C5             3.3500    -1.3914    -0.2549 C.ar    
   6 N6             2.5740    -2.5314    -0.0691 N.am    
   7 C7             1.2719    -2.2233     0.0574 C.2     
   8 C8             3.0695     1.0131    -0.4306 C.ar    
   9 C9             4.4341     1.1538    -0.5960 C.ar    
  10 C10            5.2521     0.0368    -0.5920 C.ar    
  11 C11            4.7193    -1.2268    -0.4228 C.ar    
  12 O12            0.3627    -3.0104     0.2297 O.2     
  13 O13            0.5988     1.3160    -1.8098 O.2     
  14 C14           -1.3610     2.0526    -0.7197 C.3     
  15 Cl15           2.0413     2.4118    -0.4363 Cl      
  16 H16           -0.7628    -0.2515     0.7232 H       
  17 H17            2.9284    -3.4336    -0.0314 H       
  18 H18            4.8629     2.1361    -0.7288 H       
  19 H19            6.3177     0.1544    -0.7225 H       
  20 H20            5.3693    -2.0893    -0.4222 H       
  21 H21           -1.9529     1.7229     0.1341 H       
  22 H22           -1.0001     3.0657    -0.5421 H       
  23 H23           -1.9793     2.0394    -1.6173 H       
@<TRIPOS>BOND
   1    1    2 1
   2    1   13 2
   3    1   14 1
   4    2    3 2
   5    2   16 1
   6    3    4 1
   7    3    7 1
   8    4    5 ar
   9    4    8 ar
  10    5    6 1
  11    5   11 ar
  12    6    7 am
  13    6   17 1
  14    7   12 2
  15    8    9 ar
  16    8   15 1
  17    9   10 ar
  18    9   18 1
  19   10   11 ar
  20   10   19 1
  21   11   20 1
  22   14   21 1
  23   14   22 1
  24   14   23 1

#	End of record

