#	Name: ASD01812310
#	Creating user name:	WinNT
#	Creation time:	15. 06. 2019 19:28

#	Modifying user name:	WinNT
#	Modification time:	15. 06. 2019 19:28

#	Program:	/corina/corina34_cracker 3.40 0067  02.08.2006

@<TRIPOS>MOLECULE
ASD01812310
  51   54    0    0    0
SMALL
NO_CHARGES


@<TRIPOS>ATOM
   1 C1            -0.0168     1.3897     0.0097 C.ar    
   2 C2             0.0021    -0.0041     0.0020 C.ar    
   3 C3             1.1796    -0.6877    -0.0129 C.ar    
   4 C4             2.3927     0.0187    -0.0207 C.ar    
   5 C5             2.3768     1.4381    -0.0130 C.ar    
   6 C6             1.1385     2.1078     0.0025 C.ar    
   7 C7             3.6297    -0.6529    -0.0357 C.ar    
   8 C8             4.7711     0.0956    -0.0422 C.ar    
   9 C9             4.6871     1.4959    -0.0340 C.ar    
  10 N10            3.5238     2.1168    -0.0199 N.ar    
  11 C11            5.9353     2.2963    -0.0412 C.2     
  12 N12            5.8725     3.6426    -0.0335 N.am    
  13 O13            7.0146     1.7386    -0.0541 O.2     
  14 C14            7.1057     4.4335    -0.0406 C.3     
  15 C15            6.8364     5.8081     0.5793 C.3     
  16 C16            8.1091     6.6549     0.4960 C.3     
  17 O17            8.5184     6.7643    -0.8688 O.3     
  18 C18            8.8293     5.5139    -1.4867 C.3     
  19 C19            7.5856     4.6212    -1.4831 C.3     
  20 C20            3.6922    -2.1586    -0.0438 C.3     
  21 C21            3.5760    -2.6586    -1.4607 C.ar    
  22 C22            4.7129    -2.8412    -2.2355 C.ar    
  23 C23            4.5613    -3.3026    -3.5317 C.ar    
  24 C24            3.2845    -3.5655    -4.0104 C.ar    
  25 N25            2.2246    -3.3789    -3.2412 N.ar    
  26 C26            2.3376    -2.9454    -2.0002 C.ar    
  27 F27            6.4655     5.6522     1.9192 F       
  28 O28            3.1225    -4.0176    -5.2793 O.3     
  29 C29            1.7842    -4.2695    -5.7124 C.3     
  30 H30           -0.9643     1.9080     0.0170 H       
  31 H31           -0.9302    -0.5493     0.0084 H       
  32 H32            1.1803    -1.7677    -0.0184 H       
  33 H33            1.1059     3.1873     0.0090 H       
  34 H34            5.7363    -0.3889    -0.0533 H       
  35 H35            5.0108     4.0879    -0.0231 H       
  36 H36            7.8732     3.9174     0.5362 H       
  37 H37            6.0333     6.3029     0.0332 H       
  38 H38            7.9112     7.6490     0.8970 H       
  39 H39            8.9004     6.1798     1.0758 H       
  40 H40            9.1503     5.6860    -2.5141 H       
  41 H41            9.6301     5.0239    -0.9328 H       
  42 H42            7.8324     3.6510    -1.9141 H       
  43 H43            6.7976     5.0921    -2.0708 H       
  44 H44            4.6418    -2.4851     0.3800 H       
  45 H45            2.8717    -2.5595     0.5513 H       
  46 H46            5.6934    -2.6279    -1.8362 H       
  47 H47            5.4245    -3.4556    -4.1625 H       
  48 H48            1.4497    -2.8048    -1.4017 H       
  49 H49            1.7966    -4.6256    -6.7425 H       
  50 H50            1.3313    -5.0262    -5.0718 H       
  51 H51            1.2038    -3.3487    -5.6533 H       
@<TRIPOS>BOND
   1    1    2 ar
   2    1    6 ar
   3    1   30 1
   4    2    3 ar
   5    2   31 1
   6    3    4 ar
   7    3   32 1
   8    4    5 ar
   9    4    7 ar
  10    5    6 ar
  11    5   10 ar
  12    6   33 1
  13    7    8 ar
  14    7   20 1
  15    8    9 ar
  16    8   34 1
  17    9   10 ar
  18    9   11 1
  19   11   12 am
  20   11   13 2
  21   12   14 1
  22   12   35 1
  23   14   15 1
  24   14   19 1
  25   14   36 1
  26   15   16 1
  27   15   27 1
  28   15   37 1
  29   16   17 1
  30   16   38 1
  31   16   39 1
  32   17   18 1
  33   18   19 1
  34   18   40 1
  35   18   41 1
  36   19   42 1
  37   19   43 1
  38   20   21 1
  39   20   44 1
  40   20   45 1
  41   21   22 ar
  42   21   26 ar
  43   22   23 ar
  44   22   46 1
  45   23   24 ar
  46   23   47 1
  47   24   28 1
  48   24   25 ar
  49   25   26 ar
  50   26   48 1
  51   28   29 1
  52   29   49 1
  53   29   50 1
  54   29   51 1

#	End of record

