#	Name: ASD01903212
#	Creating user name:	WinNT
#	Creation time:	15. 06. 2019 19:54

#	Modifying user name:	WinNT
#	Modification time:	15. 06. 2019 19:54

#	Program:	/corina/corina34_cracker 3.40 0067  02.08.2006

@<TRIPOS>MOLECULE
ASD01903212
  28   30    0    0    0
SMALL
NO_CHARGES


@<TRIPOS>ATOM
   1 S1            -0.0235     1.7056    -0.0313 S.3     
   2 C2             0.0013    -0.0032    -0.0101 C.2     
   3 N3             1.2218    -0.4368    -0.0139 N.2     
   4 C4             2.1833     0.4777    -0.0325 C.2     
   5 C5             1.7374     1.7461    -0.0450 C.2     
   6 N6            -1.1263    -0.8115     0.0085 N.pl3   
   7 C7            -2.3857    -0.2424     0.1277 C.ar    
   8 C8             3.6276     0.1300    -0.0391 C.2     
   9 C9             4.6492     0.8325    -0.7064 C.2     
  10 N10            5.7812     0.2214    -0.4749 N.2     
  11 N11            5.5291    -0.8867     0.3430 N.pl3   
  12 C12            4.2054    -0.9241     0.6051 C.2     
  13 N13           -2.5197     1.0649     0.3302 N.ar    
  14 C14           -3.7146     1.6087     0.4440 C.ar    
  15 N15           -4.8159     0.8899     0.3632 N.ar    
  16 C16           -4.7637    -0.4195     0.1625 C.ar    
  17 C17           -3.5331    -1.0324     0.0313 C.ar    
  18 C18            2.5943     2.9856    -0.0669 C.3     
  19 H19           -1.0339    -1.7745    -0.0620 H       
  20 H20            4.5199     1.7216    -1.3058 H       
  21 H21            6.1915    -1.5163     0.6682 H       
  22 H22            3.6952    -1.6597     1.2092 H       
  23 H23           -3.7933     2.6732     0.6085 H       
  24 H24           -5.6726    -0.9993     0.0981 H       
  25 H25           -3.4598    -2.0973    -0.1329 H       
  26 H26            2.7932     3.2716    -1.0998 H       
  27 H27            2.0727     3.7969     0.4407 H       
  28 H28            3.5369     2.7847     0.4424 H       
@<TRIPOS>BOND
   1    1    2 1
   2    1    5 1
   3    2    3 2
   4    2    6 1
   5    3    4 1
   6    4    5 2
   7    4    8 1
   8    5   18 1
   9    6    7 1
  10    6   19 1
  11    7   13 ar
  12    7   17 ar
  13    8    9 1
  14    8   12 2
  15    9   10 2
  16    9   20 1
  17   10   11 1
  18   11   12 1
  19   11   21 1
  20   12   22 1
  21   13   14 ar
  22   14   15 ar
  23   14   23 1
  24   15   16 ar
  25   16   17 ar
  26   16   24 1
  27   17   25 1
  28   18   26 1
  29   18   27 1
  30   18   28 1

#	End of record

