#	Name: ASD00071096
#	Creating user name:	WinNT
#	Creation time:	15. 06. 2019 18:30

#	Modifying user name:	WinNT
#	Modification time:	15. 06. 2019 18:30

#	Program:	/corina/corina34_cracker 3.40 0067  02.08.2006

@<TRIPOS>MOLECULE
ASD00071096
  39   40    0    0    0
SMALL
NO_CHARGES


@<TRIPOS>ATOM
   1 C1             0.4275     1.4325    -0.2710 C.2     
   2 C2             0.2182    -0.0242    -0.1343 C.ar    
   3 C3             0.7088    -0.7009     0.9841 C.ar    
   4 C4             0.5099    -2.0599     1.1062 C.ar    
   5 C5            -0.1744    -2.7536     0.1220 C.ar    
   6 C6            -0.6629    -2.0882    -0.9896 C.ar    
   7 C7            -0.4757    -0.7279    -1.1200 C.ar    
   8 O8             1.5541     1.8888    -0.2553 O.2     
   9 N9            -0.6304     2.2544    -0.4186 N.am    
  10 N10            1.4413     0.0389     2.0363 N.pl3   
  11 O11            1.9811    -0.5681     2.9439 O.2     
  12 O12            1.5041     1.2545     1.9945 O.2     
  13 C13           -0.4229     3.6983    -0.5541 C.3     
  14 C14           -1.7557     4.3854    -0.7045 C.ar    
  15 C15           -2.4412     4.8240     0.4179 C.ar    
  16 C16           -3.6684     5.4564     0.2768 C.ar    
  17 C17           -4.2071     5.6491    -0.9809 C.ar    
  18 C18           -3.5258     5.2128    -2.1011 C.ar    
  19 C19           -2.2956     4.5850    -1.9656 C.ar    
  20 O20           -1.6234     4.1611    -3.0680 O.3     
  21 C21           -2.2393     4.3999    -4.3352 C.3     
  22 O22           -1.9121     4.6345     1.6552 O.3     
  23 C23           -2.6733     5.1119     2.7664 C.3     
  24 Br24          -0.4423    -4.6174     0.2969 Br      
  25 H25            0.8889    -2.5845     1.9708 H       
  26 H26           -1.1955    -2.6347    -1.7539 H       
  27 H27           -0.8611    -0.2092    -1.9853 H       
  28 H28           -1.5291     1.8899    -0.4352 H       
  29 H29            0.0833     4.0775     0.3336 H       
  30 H30            0.1893     3.8965    -1.4339 H       
  31 H31           -4.2030     5.7980     1.1509 H       
  32 H32           -5.1625     6.1411    -1.0886 H       
  33 H33           -3.9489     5.3645    -3.0831 H       
  34 H34           -1.5997     4.0134    -5.1287 H       
  35 H35           -3.2057     3.8970    -4.3700 H       
  36 H36           -2.3823     5.4716    -4.4734 H       
  37 H37           -2.8186     6.1880     2.6717 H       
  38 H38           -3.6430     4.6144     2.7831 H       
  39 H39           -2.1388     4.8975     3.6918 H       
@<TRIPOS>BOND
   1    1    2 1
   2    1    8 2
   3    1    9 am
   4    2    3 ar
   5    2    7 ar
   6    3    4 ar
   7    3   10 1
   8    4    5 ar
   9    4   25 1
  10    5    6 ar
  11    5   24 1
  12    6    7 ar
  13    6   26 1
  14    7   27 1
  15    9   13 1
  16    9   28 1
  17   10   11 2
  18   10   12 2
  19   13   14 1
  20   13   29 1
  21   13   30 1
  22   14   15 ar
  23   14   19 ar
  24   15   16 ar
  25   15   22 1
  26   16   17 ar
  27   16   31 1
  28   17   18 ar
  29   17   32 1
  30   18   19 ar
  31   18   33 1
  32   19   20 1
  33   20   21 1
  34   21   34 1
  35   21   35 1
  36   21   36 1
  37   22   23 1
  38   23   37 1
  39   23   38 1
  40   23   39 1

#	End of record

