#	Name: ASD01810057
#	Creating user name:	WinNT
#	Creation time:	15. 06. 2019 19:23

#	Modifying user name:	WinNT
#	Modification time:	15. 06. 2019 19:23

#	Program:	/corina/corina34_cracker 3.40 0067  02.08.2006

@<TRIPOS>MOLECULE
ASD01810057
  61   65    0    0    0
SMALL
NO_CHARGES


@<TRIPOS>ATOM
   1 C1             0.1887     1.0603    -1.4079 C.ar    
   2 C2             0.2550    -0.3175    -1.5319 C.ar    
   3 C3             1.4782    -0.9611    -1.5072 C.ar    
   4 C4             2.6426    -0.2239    -1.3581 C.ar    
   5 C5             2.5752     1.1656    -1.2336 C.ar    
   6 C6             1.3443     1.8025    -1.2590 C.ar    
   7 N7             3.9908    -0.5685    -1.2974 N.am    
   8 C8             4.7105     0.5588    -1.1430 C.2     
   9 N9             3.8851     1.6217    -1.1010 N.am    
  10 C10            4.2945     3.0195    -0.9437 C.3     
  11 C11            5.0433     3.1873     0.3814 C.3     
  12 C12            5.5212     4.6353     0.5118 C.3     
  13 N13            6.4038     4.9642    -0.6148 N.3     
  14 C14            5.6931     4.8560    -1.8952 C.3     
  15 C15            5.2203     3.4146    -2.0975 C.3     
  16 O16            5.9231     0.6094    -1.0549 O.2     
  17 C17            6.9917     6.3003    -0.4503 C.3     
  18 C18            7.9986     6.5582    -1.5747 C.3     
  19 C19            8.5624     7.9739    -1.4331 C.3     
  20 N20            7.4657     8.9480    -1.5010 N.3     
  21 C21            6.5109     8.7499    -0.4030 C.3     
  22 C22            5.8858     7.3574    -0.5138 C.3     
  23 C23            7.9825    10.3230    -1.5075 C.3     
  24 C24            6.8905    11.2681    -1.9383 C.ar    
  25 C25            6.4906    11.3051    -3.2608 C.ar    
  26 C26            5.4888    12.1722    -3.6560 C.ar    
  27 C27            4.8870    13.0015    -2.7285 C.ar    
  28 C28            5.2864    12.9638    -1.4054 C.ar    
  29 C29            6.2849    12.0940    -1.0095 C.ar    
  30 Cl30          -1.2038    -1.2400    -1.7186 Cl      
  31 N31            7.1351    10.4169    -4.2540 N.pl3   
  32 O32            6.7189    10.3794    -5.3981 O.2     
  33 O33            8.0817     9.7236    -3.9273 O.2     
  34 H34           -0.7700     1.5570    -1.4322 H       
  35 H35            1.5265    -2.0357    -1.6034 H       
  36 H36            1.2889     2.8768    -1.1634 H       
  37 H37            4.3499    -1.4677    -1.3557 H       
  38 H38            3.4126     3.6600    -0.9474 H       
  39 H39            4.3758     2.9484     1.2093 H       
  40 H40            5.9028     2.5173     0.4011 H       
  41 H41            4.6603     5.3038     0.5059 H       
  42 H42            6.0671     4.7547     1.4477 H       
  43 H43            4.8314     5.5234    -1.8899 H       
  44 H44            6.3638     5.1356    -2.7077 H       
  45 H45            6.0826     2.7481    -2.1168 H       
  46 H46            4.6793     3.3380    -3.0407 H       
  47 H47            7.4984     6.3592     0.5130 H       
  48 H48            8.8111     5.8346    -1.5087 H       
  49 H49            7.5003     6.4597    -2.5391 H       
  50 H50            9.0725     8.0675    -0.4744 H       
  51 H51            9.2691     8.1658    -2.2406 H       
  52 H52            7.0306     8.8398     0.5509 H       
  53 H53            5.7274     9.5054    -0.4622 H       
  54 H54            5.3542     7.2715    -1.4615 H       
  55 H55            5.1888     7.2048     0.3102 H       
  56 H56            8.3192    10.5894    -0.5056 H       
  57 H57            8.8191    10.3934    -2.2027 H       
  58 H58            5.1768    12.2016    -4.6895 H       
  59 H59            4.1049    13.6793    -3.0374 H       
  60 H60            4.8164    13.6122    -0.6808 H       
  61 H61            6.5969    12.0645     0.0240 H       
@<TRIPOS>BOND
   1    1    2 ar
   2    1    6 ar
   3    1   34 1
   4    2    3 ar
   5    2   30 1
   6    3    4 ar
   7    3   35 1
   8    4    5 ar
   9    4    7 1
  10    5    6 ar
  11    5    9 1
  12    6   36 1
  13    7    8 am
  14    7   37 1
  15    8    9 am
  16    8   16 2
  17    9   10 1
  18   10   11 1
  19   10   15 1
  20   10   38 1
  21   11   12 1
  22   11   39 1
  23   11   40 1
  24   12   13 1
  25   12   41 1
  26   12   42 1
  27   13   14 1
  28   13   17 1
  29   14   15 1
  30   14   43 1
  31   14   44 1
  32   15   45 1
  33   15   46 1
  34   17   18 1
  35   17   22 1
  36   17   47 1
  37   18   19 1
  38   18   48 1
  39   18   49 1
  40   19   20 1
  41   19   50 1
  42   19   51 1
  43   20   21 1
  44   20   23 1
  45   21   22 1
  46   21   52 1
  47   21   53 1
  48   22   54 1
  49   22   55 1
  50   23   24 1
  51   23   56 1
  52   23   57 1
  53   24   25 ar
  54   24   29 ar
  55   25   26 ar
  56   25   31 1
  57   26   27 ar
  58   26   58 1
  59   27   28 ar
  60   27   59 1
  61   28   29 ar
  62   28   60 1
  63   29   61 1
  64   31   32 2
  65   31   33 2

#	End of record

