#	Name: ASD05633002
#	Creating user name:	WinNT
#	Creation time:	15. 06. 2019 21:01

#	Modifying user name:	WinNT
#	Modification time:	15. 06. 2019 21:01

#	Program:	/corina/corina34_cracker 3.40 0067  02.08.2006

@<TRIPOS>MOLECULE
ASD05633002
  45   47    0    0    0
SMALL
NO_CHARGES


@<TRIPOS>ATOM
   1 C1             0.0693     1.2657     0.1672 C.ar    
   2 C2             0.0563    -0.0989    -0.0592 C.ar    
   3 C3            -1.1367    -0.7922    -0.0439 C.ar    
   4 C4            -2.3304    -0.1148     0.2003 C.ar    
   5 C5            -2.3111     1.2604     0.4278 C.ar    
   6 C6            -1.1114     1.9423     0.4157 C.ar    
   7 C7            -3.6156    -0.8541     0.2176 C.ar    
   8 C8            -4.8082    -0.1730     0.4623 C.ar    
   9 C9            -6.0020    -0.8582     0.4786 C.ar    
  10 C10           -6.0189    -2.2365     0.2499 C.ar    
  11 C11           -4.8238    -2.9176     0.0049 C.ar    
  12 C12           -3.6318    -2.2293    -0.0165 C.ar    
  13 S13            1.5965     2.1443     0.1461 S.o2    
  14 O14            1.3630     3.2729     0.9773 O.2     
  15 O15            2.5678     1.1671     0.4934 O.2     
  16 C16            1.7996     2.6576    -1.5819 C.3     
  17 C17           -7.2989    -2.9729     0.2676 C.2     
  18 N18           -7.3146    -4.3024     0.0469 N.am    
  19 O19           -8.3386    -2.3799     0.4812 O.2     
  20 C20           -8.5120    -5.0159     0.1601 C.ar    
  21 C21           -9.7099    -4.4317    -0.2310 C.ar    
  22 C22          -10.8906    -5.1393    -0.1184 C.ar    
  23 C23          -10.8810    -6.4280     0.3831 C.ar    
  24 C24           -9.6902    -7.0123     0.7738 C.ar    
  25 C25           -8.5052    -6.3123     0.6584 C.ar    
  26 C26            3.0865     3.4278    -1.7293 C.2     
  27 O27            3.7941     3.6115    -0.7673 O.2     
  28 O28            3.4467     3.9096    -2.9292 O.3     
  29 H29            0.9817    -0.6226    -0.2487 H       
  30 H30           -1.1457    -1.8576    -0.2211 H       
  31 H31           -3.2328     1.7904     0.6175 H       
  32 H32           -1.0952     3.0077     0.5921 H       
  33 H33           -4.7949     0.8923     0.6394 H       
  34 H34           -6.9251    -0.3308     0.6684 H       
  35 H35           -4.8356    -3.9830    -0.1719 H       
  36 H36           -2.7079    -2.7555    -0.2062 H       
  37 H37            1.8286     1.7757    -2.2219 H       
  38 H38            0.9617     3.2908    -1.8737 H       
  39 H39           -6.4953    -4.7644    -0.1904 H       
  40 H40           -9.7181    -3.4252    -0.6223 H       
  41 H41          -11.8224    -4.6855    -0.4219 H       
  42 H42          -11.8057    -6.9791     0.4702 H       
  43 H43           -9.6862    -8.0188     1.1653 H       
  44 H44           -7.5755    -6.7693     0.9638 H       
  45 H45            4.2806     4.3970    -2.9742 H       
@<TRIPOS>BOND
   1    1    2 ar
   2    1   13 1
   3    1    6 ar
   4    2    3 ar
   5    2   29 1
   6    3    4 ar
   7    3   30 1
   8    4    5 ar
   9    4    7 1
  10    5    6 ar
  11    5   31 1
  12    6   32 1
  13    7    8 ar
  14    7   12 ar
  15    8    9 ar
  16    8   33 1
  17    9   10 ar
  18    9   34 1
  19   10   11 ar
  20   10   17 1
  21   11   12 ar
  22   11   35 1
  23   12   36 1
  24   13   14 2
  25   13   15 2
  26   13   16 1
  27   16   26 1
  28   16   37 1
  29   16   38 1
  30   17   18 am
  31   17   19 2
  32   18   20 1
  33   18   39 1
  34   20   21 ar
  35   20   25 ar
  36   21   22 ar
  37   21   40 1
  38   22   23 ar
  39   22   41 1
  40   23   24 ar
  41   23   42 1
  42   24   25 ar
  43   24   43 1
  44   25   44 1
  45   26   27 2
  46   26   28 1
  47   28   45 1

#	End of record

