#	Name: ASD01148053
#	Creating user name:	WinNT
#	Creation time:	15. 06. 2019 19:01

#	Modifying user name:	WinNT
#	Modification time:	15. 06. 2019 19:01

#	Program:	/corina/corina34_cracker 3.40 0067  02.08.2006

@<TRIPOS>MOLECULE
ASD01148053
  56   58    0    0    0
SMALL
NO_CHARGES


@<TRIPOS>ATOM
   1 N1            -0.0668     1.2216     0.0117 N.3     
   2 C2            -0.7918     2.0071    -0.9959 C.3     
   3 C3            -0.0935     1.8682    -2.3501 C.3     
   4 O4             1.1962     2.4801    -2.2860 O.3     
   5 C5            -0.8087     3.4571    -0.5857 C.2     
   6 O6            -0.1803     3.8189     0.3808 O.2     
   7 O7            -1.5218     4.3467    -1.2941 O.3     
   8 C8            -1.5854     5.7020    -0.7771 C.3     
   9 C9            -2.5196     6.5215    -1.6296 C.ar    
  10 C10           -3.8644     6.5856    -1.3161 C.ar    
  11 C11           -4.7214     7.3372    -2.0981 C.ar    
  12 C12           -4.2334     8.0252    -3.1933 C.ar    
  13 C13           -2.8884     7.9619    -3.5062 C.ar    
  14 C14           -2.0308     7.2137    -2.7217 C.ar    
  15 C15           -0.2689    -0.2183    -0.1978 C.3     
  16 C16           -1.6777    -0.5891     0.1877 C.ar    
  17 C17           -2.6626    -0.6619    -0.7796 C.ar    
  18 C18           -3.9549    -1.0020    -0.4260 C.ar    
  19 C19           -4.2623    -1.2698     0.8949 C.ar    
  20 C20           -3.2773    -1.1979     1.8621 C.ar    
  21 C21           -1.9840    -0.8620     1.5078 C.ar    
  22 C22            1.3632     1.5578     0.0124 C.3     
  23 C23            1.9753     1.1471     1.3268 C.ar    
  24 C24            2.5097    -0.1192     1.4748 C.ar    
  25 C25            2.0074     2.0386     2.3828 C.ar    
  26 C26            2.5688     1.6618     3.5886 C.ar    
  27 C27            3.0977     0.3935     3.7384 C.ar    
  28 C28            3.0710    -0.4959     2.6805 C.ar    
  29 C29            1.9362     2.4057    -3.5062 C.3     
  30 F30            2.1324     1.0643    -3.8515 F       
  31 F31            1.2238     3.0497    -4.5236 F       
  32 H32           -1.8151     1.6400    -1.0754 H       
  33 H33            0.0172     0.8119    -2.5952 H       
  34 H34           -0.6907     2.3588    -3.1188 H       
  35 H35           -1.9527     5.6826     0.2490 H       
  36 H36           -0.5902     6.1461    -0.7984 H       
  37 H37           -4.2457     6.0481    -0.4604 H       
  38 H38           -5.7722     7.3867    -1.8536 H       
  39 H39           -4.9030     8.6119    -3.8047 H       
  40 H40           -2.5073     8.4991    -4.3621 H       
  41 H41           -0.9800     7.1642    -2.9662 H       
  42 H42           -0.1041    -0.4593    -1.2480 H       
  43 H43            0.4355    -0.7775     0.4181 H       
  44 H44           -2.4224    -0.4527    -1.8116 H       
  45 H45           -4.7245    -1.0581    -1.1816 H       
  46 H46           -5.2722    -1.5348     1.1713 H       
  47 H47           -3.5176    -1.4068     2.8941 H       
  48 H48           -1.2144    -0.8059     2.2634 H       
  49 H49            1.8610     1.0298    -0.8009 H       
  50 H50            1.4838     2.6325    -0.1246 H       
  51 H51            2.4883    -0.8142     0.6484 H       
  52 H52            1.5942     3.0295     2.2658 H       
  53 H53            2.5945     2.3585     4.4134 H       
  54 H54            3.5366     0.0992     4.6803 H       
  55 H55            3.4885    -1.4852     2.7961 H       
  56 H56            2.9027     2.8923    -3.3753 H       
@<TRIPOS>BOND
   1    1   15 1
   2    1   22 1
   3    1    2 1
   4    2    3 1
   5    2    5 1
   6    2   32 1
   7    3    4 1
   8    3   33 1
   9    3   34 1
  10    4   29 1
  11    5    6 2
  12    5    7 1
  13    7    8 1
  14    8    9 1
  15    8   35 1
  16    8   36 1
  17    9   10 ar
  18    9   14 ar
  19   10   11 ar
  20   10   37 1
  21   11   12 ar
  22   11   38 1
  23   12   13 ar
  24   12   39 1
  25   13   14 ar
  26   13   40 1
  27   14   41 1
  28   15   16 1
  29   15   42 1
  30   15   43 1
  31   16   17 ar
  32   16   21 ar
  33   17   18 ar
  34   17   44 1
  35   18   19 ar
  36   18   45 1
  37   19   20 ar
  38   19   46 1
  39   20   21 ar
  40   20   47 1
  41   21   48 1
  42   22   23 1
  43   22   49 1
  44   22   50 1
  45   23   24 ar
  46   23   25 ar
  47   24   28 ar
  48   24   51 1
  49   25   26 ar
  50   25   52 1
  51   26   27 ar
  52   26   53 1
  53   27   28 ar
  54   27   54 1
  55   28   55 1
  56   29   30 1
  57   29   31 1
  58   29   56 1

#	End of record

