#	Name: ASD07930738
#	Creating user name:	WinNT
#	Creation time:	15. 06. 2019 21:13

#	Modifying user name:	WinNT
#	Modification time:	15. 06. 2019 21:13

#	Program:	/corina/corina34_cracker 3.40 0067  02.08.2006

@<TRIPOS>MOLECULE
ASD07930738
  44   45    0    0    0
SMALL
NO_CHARGES


@<TRIPOS>ATOM
   1 C1            -0.0885     1.4514     0.2598 C.3     
   2 N2            -0.9696    -1.6922    -1.2082 N.pl3   
   3 C3            -0.9038    -2.8144    -0.2662 C.3     
   4 C4            -1.1282    -2.2902     1.1593 C.3     
   5 S5             0.1008    -0.9870     1.4854 S.o2    
   6 N6            -0.0393    -0.0082     0.1442 N.am    
   7 C7            -0.1070    -0.6382    -1.0775 C.2     
   8 C8             0.4721    -3.4776    -0.3564 C.3     
   9 O9            -0.3094    -0.1669     2.5710 O.2     
  10 O10            1.4206    -1.5083     1.4115 O.2     
  11 C11           -1.9725    -3.8210    -0.6067 C.2     
  12 C12           -2.8356    -3.6582    -1.6777 C.2     
  13 C13           -3.7222    -4.6422    -1.8393 C.2     
  14 S14           -3.4873    -5.8594    -0.5916 S.3     
  15 C15           -2.1558    -4.9399     0.0975 C.2     
  16 Br16          -5.0319    -4.7162    -3.2013 Br      
  17 Cl17          -1.2273    -5.4114     1.4865 Cl      
  18 N18            0.6391    -0.2365    -2.0950 N.2     
  19 O19            1.3170    -0.4548    -4.3112 O.3     
  20 C20            1.1778    -1.1706    -5.5401 C.3     
  21 C21           -0.2692    -1.0713    -6.0271 C.3     
  22 C22            2.1120    -0.5667    -6.5907 C.3     
  23 C23            1.5417    -2.6401    -5.3185 C.3     
  24 C24            0.5566    -0.8642    -3.2742 C.2     
  25 O25           -0.2043    -1.8045    -3.4113 O.2     
  26 H26            0.9232     1.8540     0.2112 H       
  27 H27           -0.6822     1.8608    -0.5575 H       
  28 H28           -0.5432     1.7253     1.2118 H       
  29 H29           -1.6219    -1.6991    -1.9261 H       
  30 H30           -2.1335    -1.8776     1.2455 H       
  31 H31           -1.0011    -3.1029     1.8744 H       
  32 H32            1.2436    -2.7490    -0.1073 H       
  33 H33            0.5201    -4.3114     0.3440 H       
  34 H34            0.6327    -3.8447    -1.3700 H       
  35 H35           -2.7944    -2.8000    -2.3320 H       
  36 H36           -0.5284    -0.0244    -6.1850 H       
  37 H37           -0.3754    -1.6173    -6.9645 H       
  38 H38           -0.9347    -1.5015    -5.2786 H       
  39 H39            3.1429    -0.6375    -6.2438 H       
  40 H40            2.0058    -1.1127    -7.5281 H       
  41 H41            1.8528     0.4801    -6.7486 H       
  42 H42            0.8762    -3.0703    -4.5701 H       
  43 H43            1.4355    -3.1861    -6.2559 H       
  44 H44            2.5726    -2.7108    -4.9716 H       
@<TRIPOS>BOND
   1    1    6 1
   2    1   26 1
   3    1   27 1
   4    1   28 1
   5    2    3 1
   6    2    7 1
   7    2   29 1
   8    3    4 1
   9    3    8 1
  10    3   11 1
  11    4    5 1
  12    4   30 1
  13    4   31 1
  14    5    6 am
  15    5    9 2
  16    5   10 2
  17    6    7 1
  18    7   18 2
  19    8   32 1
  20    8   33 1
  21    8   34 1
  22   11   12 1
  23   11   15 2
  24   12   13 2
  25   12   35 1
  26   13   14 1
  27   13   16 1
  28   14   15 1
  29   15   17 1
  30   18   24 1
  31   19   20 1
  32   19   24 1
  33   20   21 1
  34   20   22 1
  35   20   23 1
  36   21   36 1
  37   21   37 1
  38   21   38 1
  39   22   39 1
  40   22   40 1
  41   22   41 1
  42   23   42 1
  43   23   43 1
  44   23   44 1
  45   24   25 2

#	End of record

