#	Name: ASD01811848
#	Creating user name:	WinNT
#	Creation time:	15. 06. 2019 19:27

#	Modifying user name:	WinNT
#	Modification time:	15. 06. 2019 19:27

#	Program:	/corina/corina34_cracker 3.40 0067  02.08.2006

@<TRIPOS>MOLECULE
ASD01811848
  56   60    0    0    0
SMALL
NO_CHARGES


@<TRIPOS>ATOM
   1 C1             0.3705     2.1428     0.1797 C.3     
   2 C2             0.2372     0.6640    -0.0703 C.2     
   3 C3             0.8861    -0.1983     0.7080 C.2     
   4 C4             1.7488     0.3457     1.7785 C.ar    
   5 C5             2.1227     1.6906     1.7184 C.ar    
   6 N6             1.7173     2.4768     0.6455 N.3     
   7 C7             1.8227     3.9056     0.9704 C.3     
   8 C8             2.1818    -0.4684     2.8300 C.ar    
   9 C9             2.9657     0.0432     3.8237 C.ar    
  10 C10            3.3375     1.3887     3.7972 C.ar    
  11 C11            2.9131     2.2270     2.7423 C.ar    
  12 C12            4.1739     1.9801     4.8516 C.2     
  13 N13            4.4782     3.2941     4.7435 N.am    
  14 C14            4.0201     4.0271     3.6939 C.2     
  15 N15            3.2826     3.5319     2.7472 N.2     
  16 O16            4.5772     1.3130     5.7868 O.2     
  17 C17            5.3087     3.9332     5.7673 C.3     
  18 C18            4.5254     5.0736     6.4206 C.3     
  19 C19            5.3927     5.7411     7.4898 C.3     
  20 C20            6.6614     6.2993     6.8420 C.3     
  21 C21            7.4447     5.1589     6.1887 C.3     
  22 C22            6.5774     4.4914     5.1195 C.3     
  23 O23            3.3404     4.5522     7.0256 O.3     
  24 C24            1.7797    -1.9203     2.8667 C.3     
  25 C25            0.4404    -2.0537     3.5446 C.ar    
  26 C26           -0.7239    -2.1096     2.7934 C.ar    
  27 C27           -1.9335    -2.2324     3.4589 C.ar    
  28 C28           -1.9390    -2.2947     4.8410 C.ar    
  29 N29           -0.8106    -2.2385     5.5232 N.ar    
  30 C30            0.3580    -2.1275     4.9220 C.ar    
  31 Cl31          -3.4469    -2.4480     5.6874 Cl      
  32 H32            0.1678     2.6820    -0.7456 H       
  33 H33           -0.3548     2.4449     0.9353 H       
  34 H34           -0.3830     0.3046    -0.8781 H       
  35 H35            0.7854    -1.2637     0.5625 H       
  36 H36            2.8732     4.1944     1.0025 H       
  37 H37            1.3082     4.4905     0.2080 H       
  38 H38            1.3648     4.0920     1.9419 H       
  39 H39            3.2980    -0.5929     4.6308 H       
  40 H40            4.2826     5.0736     3.6455 H       
  41 H41            5.5807     3.1985     6.5252 H       
  42 H42            4.2533     5.8083     5.6627 H       
  43 H43            4.8346     6.5536     7.9552 H       
  44 H44            5.6647     5.0064     8.2476 H       
  45 H45            6.3893     7.0340     6.0841 H       
  46 H46            7.2792     6.7748     7.6037 H       
  47 H47            8.3485     5.5566     5.7272 H       
  48 H48            7.7167     4.4242     6.9465 H       
  49 H49            7.1354     3.6790     4.6541 H       
  50 H50            6.3053     5.2261     4.3617 H       
  51 H51            2.7936     5.2211     7.4600 H       
  52 H52            1.7116    -2.3043     1.8489 H       
  53 H53            2.5257    -2.4900     3.4208 H       
  54 H54           -0.6890    -2.0583     1.7152 H       
  55 H55           -2.8599    -2.2785     2.9057 H       
  56 H56            1.2605    -2.0848     5.5136 H       
@<TRIPOS>BOND
   1    1    2 1
   2    1    6 1
   3    1   32 1
   4    1   33 1
   5    2    3 2
   6    2   34 1
   7    3    4 1
   8    3   35 1
   9    4    5 ar
  10    4    8 ar
  11    5    6 1
  12    5   11 ar
  13    6    7 1
  14    7   36 1
  15    7   37 1
  16    7   38 1
  17    8    9 ar
  18    8   24 1
  19    9   10 ar
  20    9   39 1
  21   10   11 ar
  22   10   12 1
  23   11   15 1
  24   12   13 am
  25   12   16 2
  26   13   14 1
  27   13   17 1
  28   14   15 2
  29   14   40 1
  30   17   18 1
  31   17   22 1
  32   17   41 1
  33   18   19 1
  34   18   23 1
  35   18   42 1
  36   19   20 1
  37   19   43 1
  38   19   44 1
  39   20   21 1
  40   20   45 1
  41   20   46 1
  42   21   22 1
  43   21   47 1
  44   21   48 1
  45   22   49 1
  46   22   50 1
  47   23   51 1
  48   24   25 1
  49   24   52 1
  50   24   53 1
  51   25   26 ar
  52   25   30 ar
  53   26   27 ar
  54   26   54 1
  55   27   28 ar
  56   27   55 1
  57   28   29 ar
  58   28   31 1
  59   29   30 ar
  60   30   56 1

#	End of record

