#	Name: ASD05250058
#	Creating user name:	WinNT
#	Creation time:	15. 06. 2019 20:58

#	Modifying user name:	WinNT
#	Modification time:	15. 06. 2019 20:58

#	Program:	/corina/corina34_cracker 3.40 0067  02.08.2006

@<TRIPOS>MOLECULE
ASD05250058
  63   67    0    0    0
SMALL
NO_CHARGES


@<TRIPOS>ATOM
   1 C1             0.1623     1.0811    -0.2922 C.3     
   2 C2             0.3231    -0.4388    -0.2592 C.3     
   3 C3             0.8660    -0.8794     1.1048 C.3     
   4 C4             2.2059    -0.2002     1.3458 C.3     
   5 C5             2.0075     1.3264     1.3581 C.3     
   6 C6             1.5084     1.7597    -0.0185 C.3     
   7 C7             3.1909    -0.5561     0.2279 C.3     
   8 C8             4.5580     0.0681     0.5210 C.3     
   9 C9             4.4763     0.8803     1.8231 C.3     
  10 C10            3.3793     1.9157     1.6382 C.2     
  11 C11            5.7849     1.5316     2.1393 C.3     
  12 C12            5.5506     2.7678     3.0440 C.3     
  13 C13            4.8560     3.8142     2.1843 C.3     
  14 C14            3.5396     3.1949     1.7576 C.2     
  15 C15            6.7886     0.7167     2.9613 C.3     
  16 C16            7.7512     1.8025     3.5134 C.3     
  17 C17            6.9581     3.1321     3.5127 C.3     
  18 O18           -0.9462    -1.0549    -0.4858 O.3     
  19 C19            1.0061     1.7294     2.4424 C.3     
  20 C20            2.8171    -0.6176     2.6661 C.2     
  21 C21            4.0069    -0.0600     2.9204 C.2     
  22 C22            4.6667     2.3923     4.2350 C.3     
  23 O23            7.0156     2.9868     5.8632 O.2     
  24 C24            6.9109     3.7116     4.9030 C.2     
  25 C25            6.7330     5.1957     5.0951 C.3     
  26 C26            5.5871    -1.0224     0.6720 C.2     
  27 O27            5.6922    -1.6128     1.7209 O.2     
  28 O28            6.3869    -1.3379    -0.3588 O.3     
  29 C29            3.3322    -2.0540     0.1431 C.2     
  30 O30            3.2587    -2.7255     1.1449 O.2     
  31 O31            3.5397    -2.6424    -1.0455 O.3     
  32 H32           -0.2025     1.3846    -1.2734 H       
  33 H33           -0.5568     1.3850     0.4685 H       
  34 H34            1.0173    -0.7462    -1.0413 H       
  35 H35            0.1645    -0.5906     1.8875 H       
  36 H36            0.9987    -1.9613     1.1126 H       
  37 H37            2.2295     1.4607    -0.7793 H       
  38 H38            1.3823     2.8422    -0.0373 H       
  39 H39            2.8146    -0.1746    -0.7213 H       
  40 H40            4.8416     0.7256    -0.3008 H       
  41 H41            6.2633     1.8493     1.2129 H       
  42 H42            4.6747     4.7180     2.7660 H       
  43 H43            5.4636     4.0448     1.3093 H       
  44 H44            2.7042     3.8454     1.5447 H       
  45 H45            6.2865     0.1961     3.7767 H       
  46 H46            7.3257     0.0126     2.3258 H       
  47 H47            8.0569     1.5499     4.5287 H       
  48 H48            8.6264     1.8888     2.8694 H       
  49 H49            7.4133     3.8424     2.8226 H       
  50 H50           -1.3474    -0.8280    -1.3359 H       
  51 H51            1.3788     1.4135     3.4168 H       
  52 H52            0.8791     2.8120     2.4355 H       
  53 H53            0.0468     1.2499     2.2473 H       
  54 H54            2.3349    -1.3059     3.3444 H       
  55 H55            4.5768    -0.2591     3.8159 H       
  56 H56            5.1266     1.5706     4.7841 H       
  57 H57            4.5590     3.2541     4.8936 H       
  58 H58            3.6846     2.0845     3.8759 H       
  59 H59            5.7904     5.5097     4.6468 H       
  60 H60            6.7230     5.4256     6.1605 H       
  61 H61            7.5570     5.7253     4.6168 H       
  62 H62            7.0314    -2.0441    -0.2143 H       
  63 H63            3.6239    -3.6057    -1.0497 H       
@<TRIPOS>BOND
   1    1    2 1
   2    1    6 1
   3    1   32 1
   4    1   33 1
   5    2    3 1
   6    2   18 1
   7    2   34 1
   8    3    4 1
   9    3   35 1
  10    3   36 1
  11    4    5 1
  12    4    7 1
  13    4   20 1
  14    5    6 1
  15    5   19 1
  16    5   10 1
  17    6   37 1
  18    6   38 1
  19    7    8 1
  20    7   29 1
  21    7   39 1
  22    8    9 1
  23    8   26 1
  24    8   40 1
  25    9   10 1
  26    9   21 1
  27    9   11 1
  28   10   14 2
  29   11   12 1
  30   11   15 1
  31   11   41 1
  32   12   13 1
  33   12   22 1
  34   12   17 1
  35   13   14 1
  36   13   42 1
  37   13   43 1
  38   14   44 1
  39   15   16 1
  40   15   45 1
  41   15   46 1
  42   16   17 1
  43   16   47 1
  44   16   48 1
  45   17   24 1
  46   17   49 1
  47   18   50 1
  48   19   51 1
  49   19   52 1
  50   19   53 1
  51   20   21 2
  52   20   54 1
  53   21   55 1
  54   22   56 1
  55   22   57 1
  56   22   58 1
  57   23   24 2
  58   24   25 1
  59   25   59 1
  60   25   60 1
  61   25   61 1
  62   26   27 2
  63   26   28 1
  64   28   62 1
  65   29   30 2
  66   29   31 1
  67   31   63 1

#	End of record

