#	Name: ASD01916250
#	Creating user name:	WinNT
#	Creation time:	15. 06. 2019 20:07

#	Modifying user name:	WinNT
#	Modification time:	15. 06. 2019 20:07

#	Program:	/corina/corina34_cracker 3.40 0067  02.08.2006

@<TRIPOS>MOLECULE
ASD01916250
  37   39    0    0    0
SMALL
NO_CHARGES


@<TRIPOS>ATOM
   1 C1             1.3884    -2.3625    -2.4086 C.3     
   2 C2            -0.1220    -4.4940     7.0980 C.ar    
   3 C3            -0.0440    -5.0890     5.8514 C.ar    
   4 C4             0.2916    -4.3367     4.7426 C.ar    
   5 C5             0.5530    -2.9725     4.8791 C.ar    
   6 C6             0.4739    -2.3743     6.1372 C.ar    
   7 C7             0.1366    -3.1374     7.2425 C.ar    
   8 O8             0.0581    -2.5581     8.4693 O.3     
   9 C9            -1.0548    -1.8359     8.7639 C.ar    
  10 C10           -1.1996    -1.2220    10.0038 C.ar    
  11 N11           -2.2976    -0.5273    10.2519 N.ar    
  12 C12           -3.2456    -0.4133     9.3435 C.ar    
  13 N13           -3.1457    -0.9802     8.1579 N.ar    
  14 C14           -2.0762    -1.6866     7.8311 C.ar    
  15 Cl15          -0.3689    -6.7857     5.6802 Cl      
  16 C16            0.9130    -2.1642     3.6949 C.2     
  17 N17            0.9892    -2.7444     2.4808 N.am    
  18 O18            1.1402    -0.9763     3.8161 O.2     
  19 C19            1.2239    -1.9654     1.3499 C.ar    
  20 C20            1.1857    -2.5513     0.0898 C.ar    
  21 C21            1.6858    -0.4160    -0.8403 C.ar    
  22 C22            1.7030     0.1005     0.4405 C.ar    
  23 N23            1.4758    -0.6727     1.4848 N.ar    
  24 C24            1.4202    -1.7658    -1.0252 C.ar    
  25 H25            0.3762    -2.3000    -2.8081 H       
  26 H26            2.0697    -1.8121    -3.0575 H       
  27 H27            1.6963    -3.4070    -2.3610 H       
  28 H28           -0.3888    -5.0859     7.9610 H       
  29 H29            0.3524    -4.8040     3.7708 H       
  30 H30            0.6755    -1.3191     6.2488 H       
  31 H31           -0.4269    -1.3115    10.7531 H       
  32 H32           -4.1299     0.1609     9.5775 H       
  33 H33           -2.0010    -2.1485     6.8578 H       
  34 H34            0.8806    -3.7045     2.3944 H       
  35 H35            0.9762    -3.6054    -0.0175 H       
  36 H36            1.8730     0.2245    -1.6895 H       
  37 H37            1.9092     1.1502     0.5892 H       
@<TRIPOS>BOND
   1    1   24 1
   2    1   25 1
   3    1   26 1
   4    1   27 1
   5    2    3 ar
   6    2    7 ar
   7    2   28 1
   8    3    4 ar
   9    3   15 1
  10    4    5 ar
  11    4   29 1
  12    5    6 ar
  13    5   16 1
  14    6    7 ar
  15    6   30 1
  16    7    8 1
  17    8    9 1
  18    9   10 ar
  19    9   14 ar
  20   10   11 ar
  21   10   31 1
  22   11   12 ar
  23   12   13 ar
  24   12   32 1
  25   13   14 ar
  26   14   33 1
  27   16   17 am
  28   16   18 2
  29   17   19 1
  30   17   34 1
  31   19   20 ar
  32   19   23 ar
  33   20   24 ar
  34   20   35 1
  35   21   22 ar
  36   21   24 ar
  37   21   36 1
  38   22   23 ar
  39   22   37 1

#	End of record

