#	Name: ASD01150424
#	Creating user name:	WinNT
#	Creation time:	15. 06. 2019 19:04

#	Modifying user name:	WinNT
#	Modification time:	15. 06. 2019 19:04

#	Program:	/corina/corina34_cracker 3.40 0067  02.08.2006

@<TRIPOS>MOLECULE
ASD01150424
  46   48    0    0    0
SMALL
NO_CHARGES


@<TRIPOS>ATOM
   1 C1             1.9064     1.3992     0.9622 C.ar    
   2 C2             1.9266     0.0181     0.9553 C.ar    
   3 C3             1.2217    -0.6816    -0.0054 C.ar    
   4 C4             0.4902     0.0027    -0.9684 C.ar    
   5 C5             0.4678     1.3905    -0.9644 C.ar    
   6 C6             1.1764     2.0899     0.0020 C.ar    
   7 N7             1.1565     3.4889     0.0098 N.am    
   8 C8            -0.0192     4.1354    -0.0779 C.2     
   9 N9            -0.0752     5.4803    -0.0734 N.am    
  10 C10            1.0599     6.2036     0.0202 C.2     
  11 C11            2.3491     5.5024     0.1168 C.2     
  12 N12            2.3605     4.1955     0.1144 N.2     
  13 O13            1.0175     7.4198     0.0241 O.2     
  14 C14           -1.3698     6.1592    -0.1706 C.3     
  15 O15           -1.0492     3.4944    -0.1631 O.2     
  16 C16           -1.9249     6.3826     1.2125 C.ar    
  17 C17           -1.6268     7.5460     1.8971 C.ar    
  18 C18           -2.1357     7.7515     3.1656 C.ar    
  19 C19           -2.9436     6.7925     3.7503 C.ar    
  20 C20           -3.2416     5.6283     3.0647 C.ar    
  21 C21           -2.7367     5.4265     1.7939 C.ar    
  22 N22           -0.2213    -0.7052    -1.9398 N.am    
  23 S23           -1.1378    -2.0142    -1.5051 S.o2    
  24 C24           -2.4440    -1.3229    -0.4530 C.3     
  25 O25            3.5096     6.2022     0.2122 O.3     
  26 C26            4.7182     5.4451     0.3022 C.3     
  27 Cl27          -3.5826     7.0496     5.3438 Cl      
  28 O28           -1.6815    -2.4841    -2.7310 O.2     
  29 O29           -0.2547    -2.8212    -0.7382 O.2     
  30 H30            2.4548     1.9429     1.7172 H       
  31 H31            2.4949    -0.5161     1.7023 H       
  32 H32            1.2396    -1.7614    -0.0080 H       
  33 H33           -0.0997     1.9248    -1.7120 H       
  34 H34           -1.2398     7.1196    -0.6694 H       
  35 H35           -2.0614     5.5424    -0.7444 H       
  36 H36           -0.9959     8.2944     1.4408 H       
  37 H37           -1.9024     8.6603     3.7005 H       
  38 H38           -3.8722     4.8794     3.5205 H       
  39 H39           -2.9692     4.5178     1.2586 H       
  40 H40           -0.1786    -0.4301    -2.8690 H       
  41 H41           -3.0205    -0.5933    -1.0217 H       
  42 H42           -3.1022    -2.1242    -0.1173 H       
  43 H43           -1.9940    -0.8359     0.4121 H       
  44 H44            4.8238     4.8225    -0.5862 H       
  45 H45            5.5679     6.1242     0.3731 H       
  46 H46            4.6847     4.8113     1.1883 H       
@<TRIPOS>BOND
   1    1    2 ar
   2    1    6 ar
   3    1   30 1
   4    2    3 ar
   5    2   31 1
   6    3    4 ar
   7    3   32 1
   8    4    5 ar
   9    4   22 1
  10    5    6 ar
  11    5   33 1
  12    6    7 1
  13    7    8 am
  14    7   12 1
  15    8    9 am
  16    8   15 2
  17    9   10 am
  18    9   14 1
  19   10   11 1
  20   10   13 2
  21   11   12 2
  22   11   25 1
  23   14   16 1
  24   14   34 1
  25   14   35 1
  26   16   17 ar
  27   16   21 ar
  28   17   18 ar
  29   17   36 1
  30   18   19 ar
  31   18   37 1
  32   19   20 ar
  33   19   27 1
  34   20   21 ar
  35   20   38 1
  36   21   39 1
  37   22   23 am
  38   22   40 1
  39   23   24 1
  40   23   28 2
  41   23   29 2
  42   24   41 1
  43   24   42 1
  44   24   43 1
  45   25   26 1
  46   26   44 1
  47   26   45 1
  48   26   46 1

#	End of record

