#	Name: ASD05430293
#	Creating user name:	WinNT
#	Creation time:	15. 06. 2019 21:00

#	Modifying user name:	WinNT
#	Modification time:	15. 06. 2019 21:00

#	Program:	/corina/corina34_cracker 3.40 0067  02.08.2006

@<TRIPOS>MOLECULE
ASD05430293
  70   75    0    0    0
SMALL
NO_CHARGES


@<TRIPOS>ATOM
   1 C1            -0.1913     1.1785     1.0143 C.ar    
   2 C2            -0.0146    -0.0169     0.3183 C.ar    
   3 C3            -1.0436    -0.5291    -0.4615 C.ar    
   4 C4            -2.2438     0.1417    -0.5514 C.ar    
   5 C5            -2.4282     1.3412     0.1439 C.ar    
   6 C6            -1.3944     1.8538     0.9333 C.ar    
   7 C7            -4.8823    -0.1351     0.0970 C.3     
   8 C8            -4.8620     1.3704    -0.0453 C.2     
   9 C9            -3.7098     2.0594     0.0490 C.2     
  10 C10           -6.2849    -0.6082     0.4640 C.3     
  11 C11           -7.1121     0.4100     1.2464 C.3     
  12 N12           -7.2404     1.6293     0.4480 N.pl3   
  13 C13           -6.1405     2.0607    -0.2906 C.2     
  14 N14           -6.2565     3.0105    -1.1601 N.2     
  15 C15           -8.3744     3.5620     1.3820 C.ar    
  16 C16           -9.4691     3.9172     2.1454 C.ar    
  17 C17           -7.1852     4.2558     1.5107 C.ar    
  18 C18           -7.0873     5.3074     2.4039 C.ar    
  19 C19           -8.1773     5.6678     3.1707 C.ar    
  20 C20           -9.3745     4.9731     3.0437 C.ar    
  21 N21            1.2044    -0.7029     0.4054 N.pl3   
  22 C22            2.4428    -0.1747     0.2256 C.2     
  23 C23            1.3724    -2.0325     0.6941 C.2     
  24 C24            2.6976    -2.2711     0.6760 C.2     
  25 N25            3.3262    -1.1218     0.3881 N.2     
  26 C26            3.3601    -3.5991     0.9381 C.3     
  27 C27           -8.4742     2.4130     0.4120 C.3     
  28 C28           -8.6615     2.9527    -1.0103 C.3     
  29 O29           -7.4876     3.6408    -1.4295 O.3     
  30 O30            0.8179     1.6766     1.7769 O.3     
  31 C31            0.5674     2.9053     2.4623 C.3     
  32 C32           -7.0480    -1.2272    -0.7186 C.3     
  33 O33           -7.4460    -2.2461     0.2214 O.3     
  34 C34           -6.3120    -2.0154     1.0824 C.3     
  35 C35            1.8086     3.3051     3.2626 C.3     
  36 C36           -8.9345     1.7874    -1.9635 C.3     
  37 O37           -9.2243     2.2962    -3.2670 O.3     
  38 S38          -10.7683     5.4295     4.0202 S.3     
  39 H39           -0.9026    -1.4552    -0.9989 H       
  40 H40           -3.0419    -0.2585    -1.1590 H       
  41 H41           -1.5327     2.7797     1.4718 H       
  42 H42           -4.5822    -0.5913    -0.8463 H       
  43 H43           -4.1840    -0.4337     0.8789 H       
  44 H44           -3.7253     3.1393     0.0551 H       
  45 H45           -8.1015    -0.0007     1.4474 H       
  46 H46           -6.6124     0.6405     2.1873 H       
  47 H47          -10.3977     3.3752     2.0441 H       
  48 H48           -6.3307     3.9756     0.9127 H       
  49 H49           -6.1569     5.8470     2.5018 H       
  50 H50           -8.0999     6.4886     3.8684 H       
  51 H51            2.6601     0.8561    -0.0126 H       
  52 H52            0.5918    -2.7506     0.8976 H       
  53 H53            3.4658    -4.1439    -0.0000 H       
  54 H54            4.3449    -3.4338     1.3752 H       
  55 H55            2.7489    -4.1800     1.6288 H       
  56 H56           -9.3199     1.7791     0.6786 H       
  57 H57           -9.5085     3.6385    -1.0283 H       
  58 H58            0.3360     3.6853     1.7369 H       
  59 H59           -0.2765     2.7777     3.1402 H       
  60 H60           -7.8733    -0.6141    -1.0806 H       
  61 H61           -6.4027    -1.5920    -1.5178 H       
  62 H62           -5.4406    -2.6223     0.8366 H       
  63 H63           -6.5553    -2.0258     2.1448 H       
  64 H64            2.0400     2.5251     3.9879 H       
  65 H65            2.6525     3.4327     2.5846 H       
  66 H66            1.6176     4.2423     3.7853 H       
  67 H67           -8.0560     1.1439    -2.0117 H       
  68 H68           -9.7864     1.2127    -1.6001 H       
  69 H69           -9.4080     1.6114    -3.9246 H       
  70 H70          -11.3913     6.3403     3.2512 H       
@<TRIPOS>BOND
   1    1    2 ar
   2    1   30 1
   3    1    6 ar
   4    2    3 ar
   5    2   21 1
   6    3    4 ar
   7    3   39 1
   8    4    5 ar
   9    4   40 1
  10    5    6 ar
  11    5    9 1
  12    6   41 1
  13    7    8 1
  14    7   10 1
  15    7   42 1
  16    7   43 1
  17    8    9 2
  18    8   13 1
  19    9   44 1
  20   10   11 1
  21   10   32 1
  22   10   34 1
  23   11   12 1
  24   11   45 1
  25   11   46 1
  26   12   13 1
  27   12   27 1
  28   13   14 2
  29   14   29 1
  30   15   16 ar
  31   15   17 ar
  32   15   27 1
  33   16   20 ar
  34   16   47 1
  35   17   18 ar
  36   17   48 1
  37   18   19 ar
  38   18   49 1
  39   19   20 ar
  40   19   50 1
  41   20   38 1
  42   21   22 1
  43   21   23 1
  44   22   25 2
  45   22   51 1
  46   23   24 2
  47   23   52 1
  48   24   25 1
  49   24   26 1
  50   26   53 1
  51   26   54 1
  52   26   55 1
  53   27   28 1
  54   27   56 1
  55   28   29 1
  56   28   36 1
  57   28   57 1
  58   30   31 1
  59   31   35 1
  60   31   58 1
  61   31   59 1
  62   32   33 1
  63   32   60 1
  64   32   61 1
  65   33   34 1
  66   34   62 1
  67   34   63 1
  68   35   64 1
  69   35   65 1
  70   35   66 1
  71   36   37 1
  72   36   67 1
  73   36   68 1
  74   37   69 1
  75   38   70 1

#	End of record

