#	Name: ASD04880841
#	Creating user name:	WinNT
#	Creation time:	15. 06. 2019 20:53

#	Modifying user name:	WinNT
#	Modification time:	15. 06. 2019 20:53

#	Program:	/corina/corina34_cracker 3.40 0067  02.08.2006

@<TRIPOS>MOLECULE
ASD04880841
  73   77    0    0    0
SMALL
NO_CHARGES


@<TRIPOS>ATOM
   1 C1            -0.4552     2.3461     3.1218 C.ar    
   2 C2            -0.7171     1.3678     2.1805 C.ar    
   3 C3             0.2300     1.0540     1.2227 C.ar    
   4 C4             1.4409     1.7173     1.2036 C.ar    
   5 C5             1.7074     2.7008     2.1480 C.ar    
   6 C6             0.7541     3.0135     3.1084 C.ar    
   7 N7             2.9315     3.3734     2.1319 N.3     
   8 C8             3.0840     4.1600     0.9000 C.3     
   9 C9             4.3984     4.9421     0.9567 C.3     
  10 N10            5.5172     4.0035     1.1207 N.3     
  11 C11            5.3647     3.2169     2.3526 C.3     
  12 C12            4.0503     2.4348     2.2959 C.3     
  13 C13            6.7375     4.6740     1.1047 C.ar    
  14 C14            7.1749     5.2992    -0.0663 C.ar    
  15 C15            8.3860     5.9650    -0.0819 C.ar    
  16 C16            9.1697     6.0108     1.0746 C.ar    
  17 C17            8.7263     5.3835     2.2422 C.ar    
  18 C18            7.5164     4.7255     2.2550 C.ar    
  19 C19            1.0387     4.0796     4.1348 C.3     
  20 N20            6.3866     5.2506    -1.2236 N.am    
  21 C21            6.4800     6.2305    -2.1442 C.2     
  22 C22            5.5895     6.2291    -3.3095 C.2     
  23 O23            7.3032     7.1165    -2.0084 O.2     
  24 C24           10.4633     6.7199     1.0626 C.2     
  25 O25           10.8484     7.2650     0.0462 O.2     
  26 N26           11.2182     6.7635     2.1782 N.am    
  27 C27           12.5029     7.4676     2.1663 C.3     
  28 C28           13.1528     7.3663     3.5477 C.3     
  29 C29           14.4944     8.1018     3.5353 C.3     
  30 N30           15.1167     8.0048     4.8580 N.am    
  31 C31           16.0255     6.9280     5.2687 C.3     
  32 C32           16.0709     6.9930     6.8114 C.3     
  33 C33           15.7147     8.4743     7.0752 C.3     
  34 C34           14.9332     8.8936     5.8496 C.2     
  35 S35            4.3455     5.0328    -3.6651 S.3     
  36 C36            3.9343     5.8720    -5.0966 C.2     
  37 N37            4.6807     6.9203    -5.2350 N.2     
  38 C38            5.5719     7.1519    -4.3039 C.2     
  39 O39           14.2400     9.8859     5.7735 O.2     
  40 H40           -1.1987     2.5918     3.8656 H       
  41 H41           -1.6633     0.8473     2.1934 H       
  42 H42            0.0223     0.2891     0.4891 H       
  43 H43            2.1802     1.4715     0.4557 H       
  44 H44            3.0961     3.4903     0.0401 H       
  45 H45            2.2503     4.8561     0.8075 H       
  46 H46            4.5275     5.5038     0.0316 H       
  47 H47            4.3752     5.6314     1.8008 H       
  48 H48            6.1983     2.5208     2.4452 H       
  49 H49            5.3525     3.8865     3.2126 H       
  50 H50            3.9211     1.8731     3.2211 H       
  51 H51            4.0734     1.7455     1.4518 H       
  52 H52            8.7262     6.4485    -0.9857 H       
  53 H53            9.3312     5.4179     3.1363 H       
  54 H54            7.1740     4.2450     3.1595 H       
  55 H55            1.4253     3.6162     5.0424 H       
  56 H56            1.7777     4.7765     3.7394 H       
  57 H57            0.1188     4.6173     4.3648 H       
  58 H58            5.7737     4.5116    -1.3622 H       
  59 H59           10.9110     6.3286     2.9890 H       
  60 H60           13.1584     7.0151     1.4223 H       
  61 H61           12.3401     8.5163     1.9174 H       
  62 H62           12.4972     7.8189     4.2918 H       
  63 H63           13.3155     6.3177     3.7967 H       
  64 H64           15.1499     7.6492     2.7913 H       
  65 H65           14.3316     9.1504     3.2864 H       
  66 H66           15.6381     5.9627     4.9430 H       
  67 H67           17.0199     7.0953     4.8546 H       
  68 H68           15.3275     6.3286     7.2519 H       
  69 H69           17.0690     6.7597     7.1825 H       
  70 H70           15.1014     8.5654     7.9717 H       
  71 H71           16.6203     9.0736     7.1690 H       
  72 H72            3.1614     5.5700    -5.7878 H       
  73 H73            6.2373     8.0022    -4.3271 H       
@<TRIPOS>BOND
   1    1    2 ar
   2    1    6 ar
   3    1   40 1
   4    2    3 ar
   5    2   41 1
   6    3    4 ar
   7    3   42 1
   8    4    5 ar
   9    4   43 1
  10    5    6 ar
  11    5    7 1
  12    6   19 1
  13    7    8 1
  14    7   12 1
  15    8    9 1
  16    8   44 1
  17    8   45 1
  18    9   10 1
  19    9   46 1
  20    9   47 1
  21   10   11 1
  22   10   13 1
  23   11   12 1
  24   11   48 1
  25   11   49 1
  26   12   50 1
  27   12   51 1
  28   13   14 ar
  29   13   18 ar
  30   14   15 ar
  31   14   20 1
  32   15   16 ar
  33   15   52 1
  34   16   17 ar
  35   16   24 1
  36   17   18 ar
  37   17   53 1
  38   18   54 1
  39   19   55 1
  40   19   56 1
  41   19   57 1
  42   20   21 am
  43   20   58 1
  44   21   22 1
  45   21   23 2
  46   22   35 1
  47   22   38 2
  48   24   25 2
  49   24   26 am
  50   26   27 1
  51   26   59 1
  52   27   28 1
  53   27   60 1
  54   27   61 1
  55   28   29 1
  56   28   62 1
  57   28   63 1
  58   29   30 1
  59   29   64 1
  60   29   65 1
  61   30   31 1
  62   30   34 am
  63   31   32 1
  64   31   66 1
  65   31   67 1
  66   32   33 1
  67   32   68 1
  68   32   69 1
  69   33   34 1
  70   33   70 1
  71   33   71 1
  72   34   39 2
  73   35   36 1
  74   36   37 2
  75   36   72 1
  76   37   38 1
  77   38   73 1

#	End of record

