#	Name: ASD03330354
#	Creating user name:	WinNT
#	Creation time:	15. 06. 2019 20:37

#	Modifying user name:	WinNT
#	Modification time:	15. 06. 2019 20:37

#	Program:	/corina/corina34_cracker 3.40 0067  02.08.2006

@<TRIPOS>MOLECULE
ASD03330354
  69   73    0    0    0
SMALL
NO_CHARGES


@<TRIPOS>ATOM
   1 C1             0.4883     1.1345    -0.3893 C.3     
   2 N2             0.0533    -0.2614    -0.2296 N.am    
   3 C3             0.3917    -1.2192    -1.2997 C.3     
   4 C4             1.8205    -0.9444    -1.6999 C.2     
   5 N5             2.5285     0.1401    -1.2957 N.pl3   
   6 C6             2.0200     1.1886    -0.4082 C.3     
   7 C7             2.6309    -1.6852    -2.4980 C.2     
   8 N8             3.8199    -1.0465    -2.5794 N.2     
   9 C9             3.7650     0.0517    -1.8613 C.2     
  10 C10            4.8623     1.0301    -1.6950 C.ar    
  11 C11            5.9601     1.0045    -2.5555 C.ar    
  12 C12            2.2789    -2.9560    -3.1558 C.2     
  13 O13            1.1704    -3.4327    -3.0040 O.2     
  14 C14            2.8355    -4.8533    -4.5798 C.3     
  15 N15            3.1854    -3.5900    -3.9257 N.am    
  16 C16           -0.6334    -0.6539     0.8617 C.2     
  17 O17           -1.0679    -1.7841     0.9306 O.2     
  18 C18            6.9800     1.9199    -2.3954 C.ar    
  19 C19            6.9155     2.8619    -1.3842 C.ar    
  20 C20            5.8296     2.8925    -0.5276 C.ar    
  21 C21            4.8008     1.9859    -0.6805 C.ar    
  22 C22            3.7155    -5.0706    -5.8485 C.3     
  23 C23            3.7738    -5.5537    -2.3418 C.3     
  24 C24            3.1745    -6.0484    -3.6597 C.3     
  25 C25           -0.8612     0.3115     1.9962 C.3     
  26 C26           -1.8586     1.3861     1.5589 C.3     
  27 C27           -1.4214    -0.4433     3.2034 C.3     
  28 C28            1.9236    -6.8882    -3.3936 C.3     
  29 C29            3.0806    -6.3060    -6.5570 C.3     
  30 C30            3.4196    -7.5011    -5.6370 C.3     
  31 C31            4.2273    -6.8752    -4.4593 C.3     
  32 C32            4.9900    -5.7263    -5.2088 C.3     
  33 C33            3.9390    -3.8377    -6.7266 C.3     
  34 H34            0.0986     1.5321    -1.3264 H       
  35 H35            0.1134     1.7300     0.4431 H       
  36 H36            0.2989    -2.2398    -0.9285 H       
  37 H37           -0.2690    -1.0713    -2.1539 H       
  38 H38            2.3455     2.1631    -0.7721 H       
  39 H39            2.4024     1.0292     0.6001 H       
  40 H40            6.0117     0.2694    -3.3450 H       
  41 H41            1.7782    -4.8632    -4.8444 H       
  42 H42            4.0696    -3.2098    -4.0468 H       
  43 H43            7.8305     1.9009    -3.0607 H       
  44 H44            7.7165     3.5761    -1.2628 H       
  45 H45            5.7851     3.6303     0.2599 H       
  46 H46            3.9536     2.0108    -0.0112 H       
  47 H47            3.0557    -4.9086    -1.8356 H       
  48 H48            4.0069    -6.4075    -1.7055 H       
  49 H49            4.6859    -4.9926    -2.5454 H       
  50 H50            0.0837     0.7819     2.2683 H       
  51 H51           -2.1377     1.9945     2.4192 H       
  52 H52           -1.4005     2.0195     0.7993 H       
  53 H53           -2.7482     0.9099     1.1466 H       
  54 H54           -0.7108    -1.2089     3.5150 H       
  55 H55           -1.5862     0.2550     4.0240 H       
  56 H56           -2.3663    -0.9137     2.9313 H       
  57 H57            1.2363    -6.3260    -2.7613 H       
  58 H58            1.4364    -7.1243    -4.3396 H       
  59 H59            2.2068    -7.8125    -2.8901 H       
  60 H60            2.0006    -6.1837    -6.6387 H       
  61 H61            3.5235    -6.4478    -7.5429 H       
  62 H62            2.5062    -7.9663    -5.2664 H       
  63 H63            4.0291    -8.2304    -6.1705 H       
  64 H64            4.8323    -7.5684    -3.8749 H       
  65 H65            5.6731    -6.1142    -5.9644 H       
  66 H66            5.4937    -5.0510    -4.5172 H       
  67 H67            4.4341    -3.0612    -6.1434 H       
  68 H68            4.5640    -4.1066    -7.5782 H       
  69 H69            2.9782    -3.4670    -7.0837 H       
@<TRIPOS>BOND
   1    1    2 1
   2    1    6 1
   3    1   34 1
   4    1   35 1
   5    2    3 1
   6    2   16 am
   7    3    4 1
   8    3   36 1
   9    3   37 1
  10    4    5 1
  11    4    7 2
  12    5    6 1
  13    5    9 1
  14    6   38 1
  15    6   39 1
  16    7    8 1
  17    7   12 1
  18    8    9 2
  19    9   10 1
  20   10   11 ar
  21   10   21 ar
  22   11   18 ar
  23   11   40 1
  24   12   13 2
  25   12   15 am
  26   14   22 1
  27   14   15 1
  28   14   24 1
  29   14   41 1
  30   15   42 1
  31   16   17 2
  32   16   25 1
  33   18   19 ar
  34   18   43 1
  35   19   20 ar
  36   19   44 1
  37   20   21 ar
  38   20   45 1
  39   21   46 1
  40   22   29 1
  41   22   33 1
  42   22   32 1
  43   23   24 1
  44   23   47 1
  45   23   48 1
  46   23   49 1
  47   24   28 1
  48   24   31 1
  49   25   26 1
  50   25   27 1
  51   25   50 1
  52   26   51 1
  53   26   52 1
  54   26   53 1
  55   27   54 1
  56   27   55 1
  57   27   56 1
  58   28   57 1
  59   28   58 1
  60   28   59 1
  61   29   30 1
  62   29   60 1
  63   29   61 1
  64   30   31 1
  65   30   62 1
  66   30   63 1
  67   31   32 1
  68   31   64 1
  69   32   65 1
  70   32   66 1
  71   33   67 1
  72   33   68 1
  73   33   69 1

#	End of record

