#	Name: ASD08178406
#	Creating user name:	WinNT
#	Creation time:	15. 06. 2019 21:18

#	Modifying user name:	WinNT
#	Modification time:	15. 06. 2019 21:18

#	Program:	/corina/corina34_cracker 3.40 0067  02.08.2006

@<TRIPOS>MOLECULE
ASD08178406
  85   88    0    0    0
SMALL
NO_CHARGES


@<TRIPOS>ATOM
   1 N1            -0.0168     1.3902     0.0097 N.am    
   2 C2            -0.2173     0.0103     0.0231 C.ar    
   3 C3             0.8683    -0.8557    -0.0926 C.ar    
   4 N4            -1.4399    -0.4832     0.1513 N.ar    
   5 N5            -1.6667    -1.7463     0.1686 N.ar    
   6 C6            -0.7002    -2.6368     0.0602 C.ar    
   7 C7             0.6159    -2.2190    -0.0733 C.ar    
   8 C8            -1.0247    -4.1082     0.0874 C.3     
   9 C9            -1.8115    -4.4335     1.3586 C.3     
  10 C10           -2.1410    -5.9273     1.3862 C.3     
  11 C11           -2.9278    -6.2527     2.6574 C.3     
  12 C12           -3.2523    -7.7241     2.6845 C.2     
  13 N13           -2.5213    -8.6581     3.2049 N.2     
  14 N14           -2.9690    -9.8359     3.1257 N.2     
  15 C15           -4.1130   -10.0077     2.5350 C.2     
  16 S16           -4.6995    -8.4828     2.0200 S.3     
  17 N17           -4.7575   -11.2270     2.3553 N.am    
  18 C18           -4.1929   -12.3617     2.8139 C.2     
  19 C19           -4.8913   -13.6828     2.6192 C.3     
  20 O20           -3.1229   -12.3195     3.3832 O.2     
  21 C21           -4.9700   -13.9973     1.1475 C.ar    
  22 C22           -1.0750     2.2250     0.0167 C.2     
  23 C23           -0.8601     3.7130     0.1198 C.3     
  24 O24           -2.2000     1.7786    -0.0599 O.2     
  25 C25           -2.1935     4.4152     0.1067 C.ar    
  26 C26           -2.8566     4.6619     1.2945 C.ar    
  27 C27           -2.7508     4.8175    -1.0924 C.ar    
  28 C28           -3.9741     5.4616    -1.1045 C.ar    
  29 C29           -4.6398     5.7029     0.0824 C.ar    
  30 C30           -4.0795     5.3059     1.2824 C.ar    
  31 C31           -6.1043   -13.6670     0.4297 C.ar    
  32 C32           -6.1764   -13.9555    -0.9202 C.ar    
  33 C33           -5.1141   -14.5741    -1.5526 C.ar    
  34 C34           -3.9795   -14.9036    -0.8350 C.ar    
  35 C35           -3.9056   -14.6111     0.5140 C.ar    
  36 O36           -4.1590   -14.7118     3.2877 O.3     
  37 C37           -4.5813     5.9012    -2.4119 C.3     
  38 N38           -5.4187     4.8251    -2.9477 N.am    
  39 C39           -6.0668     4.9942    -4.1172 C.2     
  40 O40           -5.9568     6.0374    -4.7260 O.2     
  41 C41           -6.9281     3.8873    -4.6683 C.3     
  42 C42           -7.5446     4.3335    -5.9956 C.3     
  43 O43           -8.3448     5.4980    -5.7815 O.3     
  44 C44           -6.4300     4.6568    -6.9925 C.3     
  45 C45           -4.9700   -15.7895     3.7598 C.3     
  46 C46           -8.4191     3.2097    -6.5552 C.3     
  47 F47           -9.4384     2.9140    -5.6436 F       
  48 F48           -8.9829     3.6177    -7.7688 F       
  49 F49           -7.6358     2.0696    -6.7647 F       
  50 H50            0.8842     1.7494    -0.0006 H       
  51 H51            1.8745    -0.4770    -0.1944 H       
  52 H52            1.4199    -2.9345    -0.1636 H       
  53 H53           -1.6240    -4.3643    -0.7864 H       
  54 H54           -0.0997    -4.6845     0.0751 H       
  55 H55           -1.2123    -4.1774     2.2323 H       
  56 H56           -2.7366    -3.8571     1.3708 H       
  57 H57           -2.7402    -6.1835     0.5124 H       
  58 H58           -1.2159    -6.5037     1.3739 H       
  59 H59           -2.3286    -5.9966     3.5311 H       
  60 H60           -3.8529    -5.6763     2.6696 H       
  61 H61           -5.6133   -11.2607     1.9000 H       
  62 H62           -5.8981   -13.6260     3.0329 H       
  63 H63           -0.3385     3.9413     1.0493 H       
  64 H64           -0.2620     4.0532    -0.7255 H       
  65 H65           -2.4192     4.3512     2.2317 H       
  66 H66           -2.2306     4.6289    -2.0199 H       
  67 H67           -5.5952     6.2064     0.0730 H       
  68 H68           -4.5997     5.4944     2.2098 H       
  69 H69           -6.9342   -13.1837     0.9238 H       
  70 H70           -7.0629   -13.6981    -1.4808 H       
  71 H71           -5.1708   -14.8002    -2.6071 H       
  72 H72           -3.1497   -15.3872    -1.3290 H       
  73 H73           -3.0191   -14.8686     1.0746 H       
  74 H74           -5.1916     6.7894    -2.2486 H       
  75 H75           -3.7872     6.1315    -3.1221 H       
  76 H76           -5.5066     3.9908    -2.4607 H       
  77 H77           -6.3178     2.9990    -4.8316 H       
  78 H78           -7.7223     3.6570    -3.9581 H       
  79 H79           -9.0727     5.3660    -5.1589 H       
  80 H80           -5.8197     3.7686    -7.1558 H       
  81 H81           -6.8692     4.9747    -7.9381 H       
  82 H82           -5.8070     5.4575    -6.5939 H       
  83 H83           -5.7063   -15.4074     4.4669 H       
  84 H84           -5.4824   -16.2546     2.9176 H       
  85 H85           -4.3401   -16.5284     4.2549 H       
@<TRIPOS>BOND
   1    1    2 1
   2    1   22 am
   3    1   50 1
   4    2    3 ar
   5    2    4 ar
   6    3    7 ar
   7    3   51 1
   8    4    5 ar
   9    5    6 ar
  10    6    7 ar
  11    6    8 1
  12    7   52 1
  13    8    9 1
  14    8   53 1
  15    8   54 1
  16    9   10 1
  17    9   55 1
  18    9   56 1
  19   10   11 1
  20   10   57 1
  21   10   58 1
  22   11   12 1
  23   11   59 1
  24   11   60 1
  25   12   13 2
  26   12   16 1
  27   13   14 1
  28   14   15 2
  29   15   16 1
  30   15   17 1
  31   17   18 am
  32   17   61 1
  33   18   19 1
  34   18   20 2
  35   19   21 1
  36   19   36 1
  37   19   62 1
  38   21   31 ar
  39   21   35 ar
  40   22   23 1
  41   22   24 2
  42   23   25 1
  43   23   63 1
  44   23   64 1
  45   25   26 ar
  46   25   27 ar
  47   26   30 ar
  48   26   65 1
  49   27   28 ar
  50   27   66 1
  51   28   29 ar
  52   28   37 1
  53   29   30 ar
  54   29   67 1
  55   30   68 1
  56   31   32 ar
  57   31   69 1
  58   32   33 ar
  59   32   70 1
  60   33   34 ar
  61   33   71 1
  62   34   35 ar
  63   34   72 1
  64   35   73 1
  65   36   45 1
  66   37   38 1
  67   37   74 1
  68   37   75 1
  69   38   39 am
  70   38   76 1
  71   39   40 2
  72   39   41 1
  73   41   42 1
  74   41   77 1
  75   41   78 1
  76   42   43 1
  77   42   44 1
  78   42   46 1
  79   43   79 1
  80   44   80 1
  81   44   81 1
  82   44   82 1
  83   45   83 1
  84   45   84 1
  85   45   85 1
  86   46   47 1
  87   46   48 1
  88   46   49 1

#	End of record

