#	Name: ASD02408442
#	Creating user name:	WinNT
#	Creation time:	15. 06. 2019 20:21

#	Modifying user name:	WinNT
#	Modification time:	15. 06. 2019 20:21

#	Program:	/corina/corina34_cracker 3.40 0067  02.08.2006

@<TRIPOS>MOLECULE
ASD02408442
  27   27    0    0    0
SMALL
NO_CHARGES


@<TRIPOS>ATOM
   1 C1            -0.0168     1.3880     0.0097 C.2     
   2 C2             0.0021    -0.0041     0.0020 C.2     
   3 N3            -1.2819    -0.4187     0.0120 N.pl3   
   4 N4            -2.1115     0.7077     0.0260 N.2     
   5 C5            -1.3746     1.7829     0.0309 C.2     
   6 C6            -1.7314    -1.8131     0.0084 C.3     
   7 N7             1.1247    -0.8097    -0.0134 N.pl3   
   8 C8            -2.5623    -2.0843     1.2642 C.3     
   9 C9            -2.9268    -3.5691     1.3237 C.3     
  10 C10           -1.7222    -1.9201    -2.4878 C.3     
  11 C11           -2.5864    -2.0701    -1.2341 C.3     
  12 C12            1.1226     2.2554     0.0035 C.1     
  13 N13            2.0265     2.9435    -0.0015 N.1     
  14 H14           -1.7382     2.7998     0.0414 H       
  15 H15           -0.8649    -2.4741    -0.0037 H       
  16 H16            2.0085    -0.4099    -0.0197 H       
  17 H17            1.0289    -1.7749    -0.0180 H       
  18 H18           -1.9830    -1.8167     2.1479 H       
  19 H19           -3.4738    -1.4874     1.2327 H       
  20 H20           -3.5187    -3.7624     2.2183 H       
  21 H21           -3.5060    -3.8367     0.4399 H       
  22 H22           -2.0153    -4.1660     1.3551 H       
  23 H23           -0.9048    -2.6403    -2.4539 H       
  24 H24           -2.3313    -2.1032    -3.3730 H       
  25 H25           -1.3149    -0.9099    -2.5296 H       
  26 H26           -2.9937    -3.0802    -1.1923 H       
  27 H27           -3.4038    -1.3498    -1.2680 H       
@<TRIPOS>BOND
   1    1    2 2
   2    1   12 1
   3    1    5 1
   4    2    3 1
   5    2    7 1
   6    3    4 1
   7    3    6 1
   8    4    5 2
   9    5   14 1
  10    6    8 1
  11    6   11 1
  12    6   15 1
  13    7   16 1
  14    7   17 1
  15    8    9 1
  16    8   18 1
  17    8   19 1
  18    9   20 1
  19    9   21 1
  20    9   22 1
  21   10   11 1
  22   10   23 1
  23   10   24 1
  24   10   25 1
  25   11   26 1
  26   11   27 1
  27   12   13 3

#	End of record

