#	Name: ASD00100091
#	Creating user name:	WinNT
#	Creation time:	15. 06. 2019 18:30

#	Modifying user name:	WinNT
#	Modification time:	15. 06. 2019 18:30

#	Program:	/corina/corina34_cracker 3.40 0067  02.08.2006

@<TRIPOS>MOLECULE
ASD00100091
  54   57    0    0    0
SMALL
NO_CHARGES


@<TRIPOS>ATOM
   1 C1            -0.0187     1.5258     0.0104 C.3     
   2 C2             0.0021    -0.0041     0.0020 C.3     
   3 C3             0.7421    -0.5109     1.2415 C.3     
   4 C4             2.1775     0.0187     1.2307 C.3     
   5 C5             2.1567     1.5485     1.2391 C.3     
   6 C6             1.4167     2.0553    -0.0004 C.3     
   7 N7            -0.7292     2.0124    -1.1797 N.3     
   8 C8             2.9174    -0.4882     2.4702 C.3     
   9 C9             4.3854    -0.0630     2.3972 C.3     
  10 N10            5.0959    -0.5497     3.5873 N.3     
  11 C11            6.5463    -0.3701     3.4444 C.3     
  12 C12            7.2613    -1.0172     4.6327 C.3     
  13 C13            6.7732    -0.3683     5.9309 C.3     
  14 C14            5.2537    -0.5270     6.0317 C.3     
  15 C15            4.5969     0.1059     4.8029 C.3     
  16 O16            8.0626    -2.5743     8.5562 O.3     
  17 C17            7.3445    -2.3364     7.4447 C.2     
  18 C18            7.4293    -1.0421     7.1084 C.2     
  19 C19            8.2900    -0.4128     8.1172 C.ar    
  20 C20            8.6514    -1.4451     8.9992 C.ar    
  21 C21            8.7576     0.8833     8.3273 C.ar    
  22 C22            9.5757     1.1454     9.4042 C.ar    
  23 C23            9.9329     0.1267    10.2754 C.ar    
  24 C24            9.4771    -1.1594    10.0788 C.ar    
  25 H25           -0.5289     1.8773     0.9072 H       
  26 H26           -1.0205    -0.3814     0.0098 H       
  27 H27            0.5123    -0.3556    -0.8948 H       
  28 H28            0.2319    -0.1594     2.1383 H       
  29 H29            0.7568    -1.6008     1.2356 H       
  30 H30            2.6876    -0.3328     0.3339 H       
  31 H31            1.6465     1.9000     2.1359 H       
  32 H32            3.1793     1.9258     1.2314 H       
  33 H33            1.9269     1.7038    -0.8972 H       
  34 H34            1.4019     3.1452     0.0056 H       
  35 H35           -0.7565     3.0209    -1.1973 H       
  36 H36           -0.3136     1.6471    -2.0235 H       
  37 H37            2.4606    -0.0646     3.3646 H       
  38 H38            2.8557    -1.5756     2.5109 H       
  39 H39            4.8423    -0.4866     1.5028 H       
  40 H40            4.4471     1.0244     2.3565 H       
  41 H41            6.8810    -0.8398     2.5195 H       
  42 H42            6.7794     0.6943     3.4161 H       
  43 H43            7.0397    -2.0843     4.6536 H       
  44 H44            8.3368    -0.8702     4.5343 H       
  45 H45            7.0294     0.6912     5.9271 H       
  46 H46            5.0005    -1.5863     6.0746 H       
  47 H47            4.8948    -0.0297     6.9328 H       
  48 H48            4.8391     1.1681     4.7682 H       
  49 H49            3.5157    -0.0180     4.8646 H       
  50 H50            6.7810    -3.0806     6.9017 H       
  51 H51            8.4806     1.6773     7.6496 H       
  52 H52            9.9407     2.1481     9.5708 H       
  53 H53           10.5750     0.3434    11.1163 H       
  54 H54            9.7616    -1.9442    10.7640 H       
@<TRIPOS>BOND
   1    1    2 1
   2    1    6 1
   3    1    7 1
   4    1   25 1
   5    2    3 1
   6    2   26 1
   7    2   27 1
   8    3    4 1
   9    3   28 1
  10    3   29 1
  11    4    5 1
  12    4    8 1
  13    4   30 1
  14    5    6 1
  15    5   31 1
  16    5   32 1
  17    6   33 1
  18    6   34 1
  19    7   35 1
  20    7   36 1
  21    8    9 1
  22    8   37 1
  23    8   38 1
  24    9   10 1
  25    9   39 1
  26    9   40 1
  27   10   11 1
  28   10   15 1
  29   11   12 1
  30   11   41 1
  31   11   42 1
  32   12   13 1
  33   12   43 1
  34   12   44 1
  35   13   14 1
  36   13   18 1
  37   13   45 1
  38   14   15 1
  39   14   46 1
  40   14   47 1
  41   15   48 1
  42   15   49 1
  43   16   17 1
  44   16   20 1
  45   17   18 2
  46   17   50 1
  47   18   19 1
  48   19   20 ar
  49   19   21 ar
  50   20   24 ar
  51   21   22 ar
  52   21   51 1
  53   22   23 ar
  54   22   52 1
  55   23   24 ar
  56   23   53 1
  57   24   54 1

#	End of record

