#	Name: ASD01470020
#	Creating user name:	WinNT
#	Creation time:	15. 06. 2019 19:21

#	Modifying user name:	WinNT
#	Modification time:	15. 06. 2019 19:21

#	Program:	/corina/corina34_cracker 3.40 0067  02.08.2006

@<TRIPOS>MOLECULE
ASD01470020
  77   82    0    0    0
SMALL
NO_CHARGES


@<TRIPOS>ATOM
   1 N1             1.7454     1.7798    -0.0407 N.am    
   2 C2             1.3367     0.3778    -0.0330 C.3     
   3 C3             0.0148     0.2009     0.7273 C.3     
   4 C4            -1.1911     0.4457    -0.1665 C.3     
   5 C5            -0.8855     1.4703    -1.2466 C.3     
   6 N6            -0.3569     2.7026    -0.6603 N.am    
   7 C7             0.9238     2.7935    -0.2613 C.2     
   8 O8             1.3713     3.9120    -0.0970 O.2     
   9 C9            -1.2416     3.8593    -0.4998 C.3     
  10 C10            3.1548     2.0841     0.2184 C.3     
  11 C11            3.8797     2.2600    -1.0911 C.ar    
  12 C12           -1.8605     3.8314     0.8740 C.ar    
  13 C13           -1.1511     4.2931     1.9444 C.ar    
  14 C14           -1.7270     4.2672     3.2196 C.ar    
  15 C15           -3.0322     3.7650     3.3844 C.ar    
  16 C16           -3.7321     3.3010     2.2731 C.ar    
  17 C17           -3.1504     3.3411     1.0379 C.ar    
  18 C18            3.8098     3.4675    -1.7614 C.ar    
  19 C19            4.4728     3.6321    -2.9617 C.ar    
  20 C20            5.2105     2.5831    -3.4954 C.ar    
  21 C21            5.2786     1.3715    -2.8194 C.ar    
  22 C22            4.6178     1.2154    -1.6168 C.ar    
  23 C23           -1.2712     4.6679     4.5466 C.2     
  24 N24           -2.2313     4.4160     5.3899 N.2     
  25 N25           -3.3269     3.8628     4.7191 N.pl3   
  26 C26            1.1573    -0.1029    -1.4744 C.3     
  27 O27           -0.0508    -1.1310     1.2408 O.3     
  28 C28            1.8031    -1.4547    -1.6372 C.ar    
  29 C29            1.1327    -2.5941    -1.2331 C.ar    
  30 C30            1.7251    -3.8342    -1.3824 C.ar    
  31 C31            2.9877    -3.9348    -1.9361 C.ar    
  32 C32            3.6577    -2.7955    -2.3410 C.ar    
  33 C33            3.0636    -1.5559    -2.1957 C.ar    
  34 C34           -2.1687     1.7887    -2.0166 C.3     
  35 O35           -2.2765     0.9197     0.6331 O.3     
  36 C36           -2.6318     0.5575    -2.7520 C.ar    
  37 C37           -3.5901    -0.2643    -2.1889 C.ar    
  38 C38           -4.0149    -1.3937    -2.8635 C.ar    
  39 C39           -3.4817    -1.7010    -4.1012 C.ar    
  40 C40           -2.5240    -0.8787    -4.6647 C.ar    
  41 C41           -2.1024     0.2531    -3.9921 C.ar    
  42 N42            5.8819     2.7460    -4.7093 N.pl3   
  43 H43            2.1108    -0.2193     0.4491 H       
  44 H44           -0.0122     0.9048     1.5591 H       
  45 H45           -1.4814    -0.4931    -0.6381 H       
  46 H46           -0.1497     1.0564    -1.9361 H       
  47 H47           -0.6656     4.7768    -0.6202 H       
  48 H48           -2.0281     3.8225    -1.2535 H       
  49 H49            3.2272     3.0030     0.8001 H       
  50 H50            3.6069     1.2642     0.7766 H       
  51 H51           -0.1505     4.6761     1.8082 H       
  52 H52           -4.7336     2.9133     2.3874 H       
  53 H53           -3.6970     2.9805     0.1790 H       
  54 H54            3.2358     4.2826    -1.3461 H       
  55 H55            4.4175     4.5753    -3.4849 H       
  56 H56            5.8513     0.5538    -3.2316 H       
  57 H57            4.6706     0.2738    -1.0905 H       
  58 H58           -0.3095     5.0967     4.7867 H       
  59 H59           -4.1617     3.5920     5.1324 H       
  60 H60            0.0942    -0.1782    -1.7026 H       
  61 H61            1.6256     0.6079    -2.1553 H       
  62 H62           -0.8592    -1.3224     1.7357 H       
  63 H63            0.1463    -2.5155    -0.8005 H       
  64 H64            1.2017    -4.7243    -1.0661 H       
  65 H65            3.4508    -4.9036    -2.0521 H       
  66 H66            4.6443    -2.8741    -2.7733 H       
  67 H67            3.5870    -0.6657    -2.5120 H       
  68 H68           -2.9423     2.1070    -1.3178 H       
  69 H69           -1.9743     2.5877    -2.7321 H       
  70 H70           -2.5514     0.3051     1.3272 H       
  71 H71           -4.0068    -0.0243    -1.2219 H       
  72 H72           -4.7631    -2.0362    -2.4232 H       
  73 H73           -3.8130    -2.5837    -4.6279 H       
  74 H74           -2.1071    -1.1189    -5.6316 H       
  75 H75           -1.3541     0.8955    -4.4323 H       
  76 H76            5.8334     3.5924    -5.1806 H       
  77 H77            6.3968     2.0127    -5.0810 H       
@<TRIPOS>BOND
   1    1    2 1
   2    1   10 1
   3    1    7 am
   4    2    3 1
   5    2   26 1
   6    2   43 1
   7    3    4 1
   8    3   27 1
   9    3   44 1
  10    4    5 1
  11    4   35 1
  12    4   45 1
  13    5    6 1
  14    5   34 1
  15    5   46 1
  16    6    7 am
  17    6    9 1
  18    7    8 2
  19    9   12 1
  20    9   47 1
  21    9   48 1
  22   10   11 1
  23   10   49 1
  24   10   50 1
  25   11   18 ar
  26   11   22 ar
  27   12   13 ar
  28   12   17 ar
  29   13   14 ar
  30   13   51 1
  31   14   15 ar
  32   14   23 1
  33   15   16 ar
  34   15   25 1
  35   16   17 ar
  36   16   52 1
  37   17   53 1
  38   18   19 ar
  39   18   54 1
  40   19   20 ar
  41   19   55 1
  42   20   21 ar
  43   20   42 1
  44   21   22 ar
  45   21   56 1
  46   22   57 1
  47   23   24 2
  48   23   58 1
  49   24   25 1
  50   25   59 1
  51   26   28 1
  52   26   60 1
  53   26   61 1
  54   27   62 1
  55   28   29 ar
  56   28   33 ar
  57   29   30 ar
  58   29   63 1
  59   30   31 ar
  60   30   64 1
  61   31   32 ar
  62   31   65 1
  63   32   33 ar
  64   32   66 1
  65   33   67 1
  66   34   36 1
  67   34   68 1
  68   34   69 1
  69   35   70 1
  70   36   37 ar
  71   36   41 ar
  72   37   38 ar
  73   37   71 1
  74   38   39 ar
  75   38   72 1
  76   39   40 ar
  77   39   73 1
  78   40   41 ar
  79   40   74 1
  80   41   75 1
  81   42   76 1
  82   42   77 1

#	End of record

