#	Name: ASD04590056
#	Creating user name:	WinNT
#	Creation time:	15. 06. 2019 20:50

#	Modifying user name:	WinNT
#	Modification time:	15. 06. 2019 20:50

#	Program:	/corina/corina34_cracker 3.40 0067  02.08.2006

@<TRIPOS>MOLECULE
ASD04590056
  39   41    0    0    0
SMALL
NO_CHARGES


@<TRIPOS>ATOM
   1 N1             0.2055     1.4612    -0.1883 N.pl3   
   2 N2             0.2180     0.1771    -0.2171 N.2     
   3 C3             1.4384    -0.2626    -0.4563 C.2     
   4 C4             2.2727     0.8775    -0.5902 C.2     
   5 C5             1.4529     1.9478    -0.4136 C.2     
   6 C6             1.8569    -1.6727    -0.5636 C.2     
   7 O7             3.0203    -1.9463    -0.7883 O.2     
   8 N8             0.9500    -2.6582    -0.4125 N.am    
   9 C9             1.3266    -3.9919    -0.6083 C.ar    
  10 C10            2.5939    -4.4187    -0.2339 C.ar    
  11 C11            2.9633    -5.7353    -0.4276 C.ar    
  12 C12            2.0711    -6.6295    -0.9951 C.ar    
  13 C13            0.8069    -6.2059    -1.3692 C.ar    
  14 C14            0.4314    -4.8916    -1.1720 C.ar    
  15 F15            2.4348    -7.9167    -1.1845 F       
  16 N16            3.6512     0.8963    -0.8494 N.am    
  17 C17            4.3023     2.0722    -0.9481 C.2     
  18 C18            5.7549     2.0920    -1.2212 C.ar    
  19 C19            6.6213     2.7663    -0.3589 C.ar    
  20 C20            7.9757     2.7809    -0.6196 C.ar    
  21 C21            8.4762     2.1295    -1.7333 C.ar    
  22 C22            7.6231     1.4598    -2.5920 C.ar    
  23 C23            6.2669     1.4317    -2.3392 C.ar    
  24 O24            3.6950     3.1166    -0.8125 O.2     
  25 N25            6.0877     3.4645     0.8322 N.pl3   
  26 O26            6.8248     4.1512     1.5167 O.2     
  27 O27            4.9114     3.3522     1.1277 O.2     
  28 H28           -0.5824     2.0050    -0.0322 H       
  29 H29            1.7398     2.9885    -0.4462 H       
  30 H30            0.0362    -2.4431    -0.1681 H       
  31 H31            3.2902    -3.7215     0.2081 H       
  32 H32            3.9488    -6.0676    -0.1365 H       
  33 H33            0.1127    -6.9048    -1.8119 H       
  34 H34           -0.5562    -4.5627    -1.4598 H       
  35 H35            4.1357     0.0630    -0.9577 H       
  36 H36            8.6471     3.3023     0.0466 H       
  37 H37            9.5374     2.1443    -1.9330 H       
  38 H38            8.0200     0.9537    -3.4596 H       
  39 H39            5.6026     0.9042    -3.0076 H       
@<TRIPOS>BOND
   1    1    2 1
   2    1    5 1
   3    1   28 1
   4    2    3 2
   5    3    4 1
   6    3    6 1
   7    4    5 2
   8    4   16 1
   9    5   29 1
  10    6    7 2
  11    6    8 am
  12    8    9 1
  13    8   30 1
  14    9   10 ar
  15    9   14 ar
  16   10   11 ar
  17   10   31 1
  18   11   12 ar
  19   11   32 1
  20   12   13 ar
  21   12   15 1
  22   13   14 ar
  23   13   33 1
  24   14   34 1
  25   16   17 am
  26   16   35 1
  27   17   18 1
  28   17   24 2
  29   18   19 ar
  30   18   23 ar
  31   19   20 ar
  32   19   25 1
  33   20   21 ar
  34   20   36 1
  35   21   22 ar
  36   21   37 1
  37   22   23 ar
  38   22   38 1
  39   23   39 1
  40   25   26 2
  41   25   27 2

#	End of record

