#	Name: ASD01882254
#	Creating user name:	WinNT
#	Creation time:	15. 06. 2019 19:44

#	Modifying user name:	WinNT
#	Modification time:	15. 06. 2019 19:44

#	Program:	/corina/corina34_cracker 3.40 0067  02.08.2006

@<TRIPOS>MOLECULE
ASD01882254
  42   44    0    0    0
SMALL
NO_CHARGES


@<TRIPOS>ATOM
   1 C1            -0.0159     1.3220     0.0093 C.2     
   2 N2             0.0021    -0.0041     0.0020 N.2     
   3 C3             1.1523    -0.6857    -0.0126 C.2     
   4 C4             2.3835     0.0173    -0.0206 C.2     
   5 C5             2.3523     1.3664    -0.0131 C.2     
   6 N6             1.1484     2.0132     0.0019 N.pl3   
   7 O7            -1.0993     2.1290     0.0184 O.3     
   8 C8             0.8540     3.4562     0.0125 C.3     
   9 C9            -0.6831     3.5211     0.0242 C.3     
  10 O10            1.1423    -1.9071    -0.0187 O.2     
  11 C11           -1.1944     4.2379    -1.2270 C.3     
  12 S12           -3.0052     4.3318    -1.1727 S.3     
  13 C13           -3.4035     5.1741    -2.6682 C.ar    
  14 C14           -4.7302     5.4382    -2.9868 C.ar    
  15 C15           -5.0385     6.0984    -4.1597 C.ar    
  16 C16           -4.0290     6.4963    -5.0172 C.ar    
  17 C17           -2.7076     6.2348    -4.7037 C.ar    
  18 C18           -2.3913     5.5809    -3.5293 C.ar    
  19 C19           -4.3697     7.2162    -6.2966 C.3     
  20 C20           -5.1114     8.5138    -5.9696 C.3     
  21 C21           -3.0825     7.5421    -7.0567 C.3     
  22 C22           -5.2611     6.3235    -7.1622 C.3     
  23 H23            3.3237    -0.5140    -0.0321 H       
  24 H24            3.2727     1.9314    -0.0185 H       
  25 H25            1.2651     3.9237     0.9072 H       
  26 H26            1.2480     3.9334    -0.8848 H       
  27 H27           -1.0396     4.0220     0.9243 H       
  28 H28           -0.7793     5.2451    -1.2639 H       
  29 H29           -0.8857     3.6850    -2.1142 H       
  30 H30           -5.5191     5.1271    -2.3180 H       
  31 H31           -6.0693     6.3040    -4.4079 H       
  32 H32           -1.9219     6.5466    -5.3758 H       
  33 H33           -1.3590     5.3812    -3.2828 H       
  34 H34           -4.4764     9.1498    -5.3529 H       
  35 H35           -5.3578     9.0345    -6.8950 H       
  36 H36           -6.0284     8.2816    -5.4281 H       
  37 H37           -2.5541     6.6176    -7.2896 H       
  38 H38           -3.3289     8.0628    -7.9820 H       
  39 H39           -2.4475     8.1781    -6.4400 H       
  40 H40           -6.1781     6.0913    -6.6207 H       
  41 H41           -5.5075     6.8441    -8.0876 H       
  42 H42           -4.7327     5.3990    -7.3952 H       
@<TRIPOS>BOND
   1    1    2 2
   2    1    6 1
   3    1    7 1
   4    2    3 1
   5    3    4 1
   6    3   10 2
   7    4    5 2
   8    4   23 1
   9    5    6 1
  10    5   24 1
  11    6    8 1
  12    7    9 1
  13    8    9 1
  14    8   25 1
  15    8   26 1
  16    9   11 1
  17    9   27 1
  18   11   12 1
  19   11   28 1
  20   11   29 1
  21   12   13 1
  22   13   14 ar
  23   13   18 ar
  24   14   15 ar
  25   14   30 1
  26   15   16 ar
  27   15   31 1
  28   16   17 ar
  29   16   19 1
  30   17   18 ar
  31   17   32 1
  32   18   33 1
  33   19   20 1
  34   19   22 1
  35   19   21 1
  36   20   34 1
  37   20   35 1
  38   20   36 1
  39   21   37 1
  40   21   38 1
  41   21   39 1
  42   22   40 1
  43   22   41 1
  44   22   42 1

#	End of record

