#	Name: ASD01870387
#	Creating user name:	WinNT
#	Creation time:	15. 06. 2019 19:39

#	Modifying user name:	WinNT
#	Modification time:	15. 06. 2019 19:39

#	Program:	/corina/corina34_cracker 3.40 0067  02.08.2006

@<TRIPOS>MOLECULE
ASD01870387
  26   27    0    0    0
SMALL
NO_CHARGES


@<TRIPOS>ATOM
   1 C1            -0.0162     1.3436     0.0094 C.2     
   2 N2             0.0021    -0.0041     0.0020 N.am    
   3 O3             1.0257     1.9642     0.0028 O.2     
   4 C4             1.2121    -0.6809    -0.0132 C.2     
   5 O5             1.3634    -2.0143    -0.0218 O.3     
   6 C6             2.6875    -2.2780    -0.0363 C.2     
   7 C7             3.3281    -1.0990    -0.0364 C.2     
   8 N8             2.3980    -0.1258    -0.0272 N.2     
   9 C9            -1.3314     2.0792     0.0197 C.3     
  10 C10           -1.0739     3.5892     0.0267 C.3     
  11 C11           -2.4131     4.3277    -0.0425 C.3     
  12 O12           -3.1203     3.9201    -1.2155 O.3     
  13 C13           -3.4305     2.5257    -1.2547 C.3     
  14 C14           -2.1322     1.7148    -1.2342 C.3     
  15 H15           -0.8313    -0.5005     0.0073 H       
  16 H16            3.1458    -3.2559    -0.0461 H       
  17 H17            4.3986    -0.9562    -0.0463 H       
  18 H18           -1.8975     1.8018     0.9089 H       
  19 H19           -0.5524     3.8655     0.9431 H       
  20 H20           -0.4643     3.8587    -0.8358 H       
  21 H21           -3.0058     4.0892     0.8406 H       
  22 H22           -2.2341     5.4022    -0.0810 H       
  23 H23           -4.0365     2.2636    -0.3874 H       
  24 H24           -3.9844     2.3021    -2.1664 H       
  25 H25           -1.5440     1.9464    -2.1222 H       
  26 H26           -2.3676     0.6506    -1.2196 H       
@<TRIPOS>BOND
   1    1    2 am
   2    1    3 2
   3    1    9 1
   4    2    4 1
   5    2   15 1
   6    4    5 1
   7    4    8 2
   8    5    6 1
   9    6    7 2
  10    6   16 1
  11    7    8 1
  12    7   17 1
  13    9   10 1
  14    9   14 1
  15    9   18 1
  16   10   11 1
  17   10   19 1
  18   10   20 1
  19   11   12 1
  20   11   21 1
  21   11   22 1
  22   12   13 1
  23   13   14 1
  24   13   23 1
  25   13   24 1
  26   14   25 1
  27   14   26 1

#	End of record

