#	Name: ASD01870460
#	Creating user name:	WinNT
#	Creation time:	15. 06. 2019 19:39

#	Modifying user name:	WinNT
#	Modification time:	15. 06. 2019 19:39

#	Program:	/corina/corina34_cracker 3.40 0067  02.08.2006

@<TRIPOS>MOLECULE
ASD01870460
  57   60    0    0    0
SMALL
NO_CHARGES


@<TRIPOS>ATOM
   1 C1             0.3809     1.1963     0.5385 C.3     
   2 N2             0.3752    -0.2498     0.2703 N.am    
   3 C3             0.9631    -0.7260    -0.9910 C.3     
   4 C4             2.3648    -0.1233    -1.1328 C.3     
   5 N5             2.2824     1.3371    -0.9982 N.3     
   6 C6             1.8056     1.7232     0.3365 C.3     
   7 C7             3.5058     1.9335    -1.2820 C.ar    
   8 C8             4.6383     1.6201    -0.5316 C.ar    
   9 C9             5.8332     2.2390    -0.8523 C.ar    
  10 C10            5.8725     3.1456    -1.9011 C.ar    
  11 N11            4.7931     3.4276    -2.5962 N.ar    
  12 C12            3.6229     2.8557    -2.3315 C.ar    
  13 C13            2.4725     3.1925    -3.1149 C.1     
  14 N14            1.5599     3.4596    -3.7365 N.1     
  15 C15            1.0598    -2.2527    -0.9690 C.3     
  16 C16           -0.1542    -1.1158     1.1571 C.2     
  17 C17           -0.6353    -0.6221     2.4972 C.3     
  18 O18           -0.2435    -2.2923     0.8765 O.2     
  19 C19           -1.1629    -1.8020     3.3159 C.3     
  20 C20           -1.6513    -1.3008     4.6765 C.3     
  21 C21           -0.4908    -0.6401     5.4233 C.3     
  22 C22            0.0368     0.5398     4.6045 C.3     
  23 C23            0.5252     0.0386     3.2439 C.3     
  24 C24           -1.0846     1.5602     4.3995 C.3     
  25 C25           -2.2452     0.8996     3.6527 C.3     
  26 C26           -1.7567     0.3984     2.2922 C.3     
  27 C27           -2.7727    -0.2803     4.4715 C.3     
  28 H28           -3.0441     1.6266     3.5067 H       
  29 H29            0.8635     1.0105     5.1365 H       
  30 H30           -2.0271    -2.1414     5.2598 H       
  31 H31           -0.2968     1.6993    -0.1513 H       
  32 H32            0.0650     1.3794     1.5655 H       
  33 H33            0.3413    -0.4077    -1.8279 H       
  34 H34            3.0136    -0.5243    -0.3541 H       
  35 H35            2.7720    -0.3760    -2.1118 H       
  36 H36            1.8072     2.8098     0.4231 H       
  37 H37            2.4622     1.2965     1.0948 H       
  38 H38            4.5839     0.9111     0.2813 H       
  39 H39            6.7284     2.0182    -0.2900 H       
  40 H40            6.8058     3.6284    -2.1508 H       
  41 H41            0.0575    -2.6806    -0.9897 H       
  42 H42            1.6187    -2.5940    -1.8403 H       
  43 H43            1.5721    -2.5712    -0.0611 H       
  44 H44           -1.9896    -2.2727     2.7839 H       
  45 H45           -0.3639    -2.5290     3.4620 H       
  46 H46           -0.8388    -0.2830     6.3925 H       
  47 H47            0.3081    -1.3671     5.5693 H       
  48 H48            1.3241    -0.6884     3.3900 H       
  49 H49            0.9010     0.8792     2.6606 H       
  50 H50           -1.4326     1.9173     5.3687 H       
  51 H51           -0.7088     2.4008     3.8161 H       
  52 H52           -1.3809     1.2389     1.7088 H       
  53 H53           -2.5835    -0.0723     1.7602 H       
  54 H54           -3.5995    -0.7510     3.9395 H       
  55 H55           -3.1207     0.0768     5.4408 H       
  56 H56           11.8058     8.6284    11.3925 H       
  57 Cl57          11.8058     9.9984    11.3925 Cl      
@<TRIPOS>BOND
   1    1    2 1
   2    1    6 1
   3    1   31 1
   4    1   32 1
   5    2    3 1
   6    2   16 am
   7    3    4 1
   8    3   15 1
   9    3   33 1
  10    4    5 1
  11    4   34 1
  12    4   35 1
  13    5    6 1
  14    5    7 1
  15    6   36 1
  16    6   37 1
  17    7    8 ar
  18    7   12 ar
  19    8    9 ar
  20    8   38 1
  21    9   10 ar
  22    9   39 1
  23   10   11 ar
  24   10   40 1
  25   11   12 ar
  26   12   13 1
  27   13   14 3
  28   15   41 1
  29   15   42 1
  30   15   43 1
  31   16   18 2
  32   16   17 1
  33   17   19 1
  34   17   23 1
  35   17   26 1
  36   19   20 1
  37   19   44 1
  38   19   45 1
  39   20   21 1
  40   20   27 1
  41   20   30 1
  42   21   22 1
  43   21   46 1
  44   21   47 1
  45   22   23 1
  46   22   24 1
  47   22   29 1
  48   23   48 1
  49   23   49 1
  50   24   25 1
  51   24   50 1
  52   24   51 1
  53   25   26 1
  54   25   28 1
  55   25   27 1
  56   26   52 1
  57   26   53 1
  58   27   54 1
  59   27   55 1
  60   56   57 1

#	End of record

