#	Name: ASD03091426
#	Creating user name:	WinNT
#	Creation time:	15. 06. 2019 20:30

#	Modifying user name:	WinNT
#	Modification time:	15. 06. 2019 20:30

#	Program:	/corina/corina34_cracker 3.40 0067  02.08.2006

@<TRIPOS>MOLECULE
ASD03091426
  42   45    0    0    0
SMALL
NO_CHARGES


@<TRIPOS>ATOM
   1 C1             0.0346     1.6927    -0.0453 C.3     
   2 C2            -0.0005     0.1645    -0.1112 C.3     
   3 N3             0.6560    -0.3934     1.0780 N.3     
   4 C4            -0.0455     0.0027     2.3058 C.3     
   5 C5            -0.0124     1.5260     2.4457 C.3     
   6 C6             1.4441     1.9966     2.5210 C.3     
   7 N7             2.1057     1.6902     1.2454 N.am    
   8 C8             1.4918     2.1650    -0.0022 C.3     
   9 C9            -0.6827     2.1619     1.2241 C.3     
  10 C10            3.2546     0.9861     1.2201 C.2     
  11 O11            3.8148     0.6982     2.2613 O.2     
  12 O12            3.2443     0.6967    -1.2709 O.3     
  13 C13            3.8299     0.5668    -0.0627 C.2     
  14 C14            5.0479    -0.0200    -0.2373 C.2     
  15 C15            5.1911    -0.2500    -1.6243 C.2     
  16 C16            4.0540     0.2087    -2.2185 C.2     
  17 C17            6.3564    -0.8708    -2.3033 C.ar    
  18 C18            6.3545    -1.0330    -3.6868 C.ar    
  19 C19            7.4404    -1.6108    -4.3130 C.ar    
  20 C20            8.5292    -2.0286    -3.5692 C.ar    
  21 C21            8.5360    -1.8704    -2.1951 C.ar    
  22 C22            7.4580    -1.2881    -1.5596 C.ar    
  23 H23           -0.4580     2.1076    -0.9247 H       
  24 H24           -1.0361    -0.1738    -0.1466 H       
  25 H25            0.5223    -0.1725    -1.0063 H       
  26 H26            0.7309    -1.3974     1.0123 H       
  27 H27           -1.0807    -0.3350     2.2575 H       
  28 H28            0.4447    -0.4517     3.1668 H       
  29 H29           -0.5389     1.8210     3.3534 H       
  30 H30            1.4721     3.0717     2.6983 H       
  31 H31            1.9547     1.4768     3.3316 H       
  32 H32            2.0339     1.7561    -0.8549 H       
  33 H33            1.5241     3.2540    -0.0341 H       
  34 H34           -0.6195     3.2475     1.2979 H       
  35 H35           -1.7291     1.8591     1.1841 H       
  36 H36            5.7640    -0.2621     0.5341 H       
  37 H37            3.8414     0.1829    -3.2771 H       
  38 H38            5.5047    -0.7075    -4.2685 H       
  39 H39            7.4398    -1.7373    -5.3855 H       
  40 H40            9.3768    -2.4803    -4.0630 H       
  41 H41            9.3885    -2.1986    -1.6190 H       
  42 H42            7.4664    -1.1606    -0.4872 H       
@<TRIPOS>BOND
   1    1    2 1
   2    1    8 1
   3    1    9 1
   4    1   23 1
   5    2    3 1
   6    2   24 1
   7    2   25 1
   8    3    4 1
   9    3   26 1
  10    4    5 1
  11    4   27 1
  12    4   28 1
  13    5    6 1
  14    5    9 1
  15    5   29 1
  16    6    7 1
  17    6   30 1
  18    6   31 1
  19    7    8 1
  20    7   10 am
  21    8   32 1
  22    8   33 1
  23    9   34 1
  24    9   35 1
  25   10   11 2
  26   10   13 1
  27   12   13 1
  28   12   16 1
  29   13   14 2
  30   14   15 1
  31   14   36 1
  32   15   16 2
  33   15   17 1
  34   16   37 1
  35   17   18 ar
  36   17   22 ar
  37   18   19 ar
  38   18   38 1
  39   19   20 ar
  40   19   39 1
  41   20   21 ar
  42   20   40 1
  43   21   22 ar
  44   21   41 1
  45   22   42 1

#	End of record

