#	Name: ASD03730213
#	Creating user name:	WinNT
#	Creation time:	15. 06. 2019 20:44

#	Modifying user name:	WinNT
#	Modification time:	15. 06. 2019 20:44

#	Program:	/corina/corina34_cracker 3.40 0067  02.08.2006

@<TRIPOS>MOLECULE
ASD03730213
  54   59    0    0    0
SMALL
NO_CHARGES


@<TRIPOS>ATOM
   1 C1            -0.7867     1.9161     0.0890 C.2     
   2 C2            -0.1437     0.5761     0.3378 C.3     
   3 O3            -0.1588     2.9355     0.2832 O.2     
   4 N4            -2.0577     1.9818    -0.3547 N.am    
   5 C5            -2.6936     3.2236    -0.4764 C.ar    
   6 C6            -3.8208     3.3536    -1.2808 C.ar    
   7 C7            -4.4455     4.5815    -1.3982 C.ar    
   8 C8            -3.9502     5.6784    -0.7167 C.ar    
   9 C9            -2.8300     5.5513     0.0833 C.ar    
  10 C10           -2.2039     4.3259     0.2097 C.ar    
  11 F11           -4.3042     2.2821    -1.9467 F       
  12 O12            4.8741     0.6342     3.5373 O.3     
  13 C13            4.5292     1.9425     3.7056 C.ar    
  14 C14            3.4547     2.2886     2.8895 C.ar    
  15 C15            3.0681     1.0442     2.1374 C.3     
  16 C16            3.7845    -0.0706     2.9124 C.3     
  17 O17            4.9722     5.2780     5.2951 O.3     
  18 C18            4.5814     4.2022     4.5568 C.ar    
  19 C19            3.5208     4.5268     3.7202 C.ar    
  20 C20            3.2112     5.9943     3.9419 C.3     
  21 C21            4.4814     6.4806     4.6792 C.3     
  22 C22            2.9601     3.5753     2.8962 C.ar    
  23 C23            5.0838     2.9060     4.5388 C.ar    
  24 N24            1.2306     0.7732     0.8054 N.am    
  25 C25            1.5814     0.8356     2.1055 C.2     
  26 C26            3.4943     1.0884     0.7000 C.ar    
  27 C27            4.7113     1.2509     0.0717 C.ar    
  28 C28            4.7827     1.2463    -1.3122 C.ar    
  29 C29            3.6315     1.0780    -2.0593 C.ar    
  30 C30            2.4128     0.9142    -1.4345 C.ar    
  31 C31            2.3302     0.9178    -0.0440 C.ar    
  32 O32            0.8414     0.7414     3.0618 O.2     
  33 C33            1.1650     0.7322    -2.2598 C.3     
  34 F34            5.8337     1.4151     0.8054 F       
  35 H35           -0.7113     0.0358     1.0954 H       
  36 H36           -0.1335     0.0005    -0.5878 H       
  37 H37           -2.5319     1.1689    -0.5896 H       
  38 H38           -5.3207     4.6842    -2.0227 H       
  39 H39           -4.4396     6.6367    -0.8101 H       
  40 H40           -2.4462     6.4101     0.6138 H       
  41 H41           -1.3317     4.2271     0.8389 H       
  42 H42            4.1581    -0.8362     2.2324 H       
  43 H43            3.1245    -0.5063     3.6624 H       
  44 H44            3.0889     6.5145     2.9919 H       
  45 H45            2.3269     6.1157     4.5676 H       
  46 H46            4.2285     7.2254     5.4338 H       
  47 H47            5.2100     6.8775     3.9723 H       
  48 H48            2.1321     3.8380     2.2544 H       
  49 H49            5.9135     2.6454     5.1791 H       
  50 H50            5.7348     1.3742    -1.8058 H       
  51 H51            3.6869     1.0749    -3.1379 H       
  52 H52            0.9433    -0.3309    -2.3536 H       
  53 H53            0.3303     1.2358    -1.7722 H       
  54 H54            1.3190     1.1601    -3.2504 H       
@<TRIPOS>BOND
   1    1    2 1
   2    1    3 2
   3    1    4 am
   4    2   24 1
   5    2   35 1
   6    2   36 1
   7    4    5 1
   8    4   37 1
   9    5    6 ar
  10    5   10 ar
  11    6    7 ar
  12    6   11 1
  13    7    8 ar
  14    7   38 1
  15    8    9 ar
  16    8   39 1
  17    9   10 ar
  18    9   40 1
  19   10   41 1
  20   12   13 1
  21   12   16 1
  22   13   14 ar
  23   13   23 ar
  24   14   15 1
  25   14   22 ar
  26   15   16 1
  27   15   25 1
  28   15   26 1
  29   16   42 1
  30   16   43 1
  31   17   18 1
  32   17   21 1
  33   18   19 ar
  34   18   23 ar
  35   19   20 1
  36   19   22 ar
  37   20   21 1
  38   20   44 1
  39   20   45 1
  40   21   46 1
  41   21   47 1
  42   22   48 1
  43   23   49 1
  44   24   25 am
  45   24   31 1
  46   25   32 2
  47   26   27 ar
  48   26   31 ar
  49   27   28 ar
  50   27   34 1
  51   28   29 ar
  52   28   50 1
  53   29   30 ar
  54   29   51 1
  55   30   31 ar
  56   30   33 1
  57   33   52 1
  58   33   53 1
  59   33   54 1

#	End of record

