#	Name: ASD01915767
#	Creating user name:	WinNT
#	Creation time:	15. 06. 2019 20:06

#	Modifying user name:	WinNT
#	Modification time:	15. 06. 2019 20:06

#	Program:	/corina/corina34_cracker 3.40 0067  02.08.2006

@<TRIPOS>MOLECULE
ASD01915767
  45   48    0    0    0
SMALL
NO_CHARGES


@<TRIPOS>ATOM
   1 C1            -0.1549     0.9171     0.4740 C.2     
   2 N2            -0.1651    -0.2699    -0.2237 N.pl3   
   3 C3            -1.3929    -0.7705    -0.8536 C.3     
   4 C4            -2.2695     0.4122    -1.2619 C.3     
   5 N5            -2.4089     1.4012    -0.1986 N.am    
   6 C6            -1.3600     1.7530     0.5839 C.2     
   7 C7             1.1126     1.0870     0.9555 C.2     
   8 C8             1.8259    -0.0308     0.5021 C.2     
   9 N9             1.0026    -0.7824    -0.1911 N.2     
  10 C10            3.2817    -0.3191     0.7638 C.3     
  11 O11            3.8404     0.7312     1.5555 O.3     
  12 C12            5.1550     0.6243     1.8832 C.ar    
  13 O13           -1.4124     2.7075     1.3361 O.2     
  14 C14            5.7622     1.6083     2.6499 C.ar    
  15 C15            5.8906    -0.4717     1.4563 C.ar    
  16 C16            7.2267    -0.5780     1.7907 C.ar    
  17 C17            7.8310     0.4069     2.5501 C.ar    
  18 C18            7.0986     1.4974     2.9815 C.ar    
  19 C19           -3.6547     2.0006     0.0183 C.ar    
  20 C20           -3.9802     3.1833    -0.6327 C.ar    
  21 C21           -4.5695     1.4105     0.8806 C.ar    
  22 C22           -5.7986     2.0034     1.0929 C.ar    
  23 C23           -6.1191     3.1855     0.4467 C.ar    
  24 C24           -5.2104     3.7728    -0.4175 C.ar    
  25 F25           -7.3220     3.7639     0.6558 F       
  26 C26           -1.6494     1.0874    -2.4869 C.3     
  27 O27           -0.2957     1.4439    -2.2000 O.3     
  28 H28           -1.1363    -1.3553    -1.7369 H       
  29 H29           -1.9350    -1.3980    -0.1461 H       
  30 H30           -3.2588     0.0414    -1.5298 H       
  31 H31            1.4840     1.9052     1.5548 H       
  32 H32            3.3746    -1.2650     1.2973 H       
  33 H33            3.8156    -0.3827    -0.1844 H       
  34 H34            5.1906     2.4605     2.9868 H       
  35 H35            5.4190    -1.2414     0.8634 H       
  36 H36            7.7997    -1.4312     1.4589 H       
  37 H37            8.8757     0.3220     2.8104 H       
  38 H38            7.5729     2.2655     3.5743 H       
  39 H39           -3.2716     3.6419    -1.3066 H       
  40 H40           -4.3201     0.4884     1.3845 H       
  41 H41           -6.5105     1.5447     1.7631 H       
  42 H42           -5.4623     4.6948    -0.9205 H       
  43 H43           -1.6727     0.3992    -3.3318 H       
  44 H44           -2.2170     1.9847    -2.7334 H       
  45 H45            0.1608     1.8776    -2.9340 H       
@<TRIPOS>BOND
   1    1    2 1
   2    1    7 2
   3    1    6 1
   4    2    3 1
   5    2    9 1
   6    3    4 1
   7    3   28 1
   8    3   29 1
   9    4    5 1
  10    4   26 1
  11    4   30 1
  12    5    6 am
  13    5   19 1
  14    6   13 2
  15    7    8 1
  16    7   31 1
  17    8    9 2
  18    8   10 1
  19   10   11 1
  20   10   32 1
  21   10   33 1
  22   11   12 1
  23   12   14 ar
  24   12   15 ar
  25   14   18 ar
  26   14   34 1
  27   15   16 ar
  28   15   35 1
  29   16   17 ar
  30   16   36 1
  31   17   18 ar
  32   17   37 1
  33   18   38 1
  34   19   21 ar
  35   19   20 ar
  36   20   24 ar
  37   20   39 1
  38   21   22 ar
  39   21   40 1
  40   22   23 ar
  41   22   41 1
  42   23   24 ar
  43   23   25 1
  44   24   42 1
  45   26   27 1
  46   26   43 1
  47   26   44 1
  48   27   45 1

#	End of record

