#	Name: ASD01150582
#	Creating user name:	WinNT
#	Creation time:	15. 06. 2019 19:04

#	Modifying user name:	WinNT
#	Modification time:	15. 06. 2019 19:04

#	Program:	/corina/corina34_cracker 3.40 0067  02.08.2006

@<TRIPOS>MOLECULE
ASD01150582
  51   54    0    0    0
SMALL
NO_CHARGES


@<TRIPOS>ATOM
   1 C1             1.9144     1.4015     0.9689 C.ar    
   2 C2             1.9596     0.0212     0.9431 C.ar    
   3 C3             0.4927     0.0046    -0.9572 C.ar    
   4 C4             0.4447     1.3911    -0.9340 C.ar    
   5 C5             1.1564     2.0910     0.0300 C.ar    
   6 N6             1.1107     3.4892     0.0569 N.am    
   7 C7            -0.0778     4.1147    -0.0076 C.2     
   8 N8            -0.1587     5.4581     0.0163 N.am    
   9 C9             0.9638     6.2012     0.1062 C.2     
  10 C10            2.2670     5.5230     0.1772 C.2     
  11 N11            2.3025     4.2167     0.1565 N.2     
  12 O12            0.8990     7.4163     0.1280 O.2     
  13 C13           -1.4667     6.1140    -0.0560 C.3     
  14 O14           -1.0967     3.4557    -0.0894 O.2     
  15 C15           -2.0090     6.3080     1.3366 C.ar    
  16 O16            3.4153     6.2431     0.2679 O.3     
  17 C17            4.6388     5.5076     0.3324 C.3     
  18 C18            1.2519    -0.6785    -0.0156 C.ar    
  19 C19           -1.7101     7.4862     2.0248 C.ar    
  20 C20           -2.1694     7.7173     3.2800 C.ar    
  21 C21           -2.9727     6.7477     3.9179 C.ar    
  22 C22           -3.2875     5.5071     3.1923 C.ar    
  23 C23           -2.7791     5.3362     1.8869 C.ar    
  24 N24           -0.2232    -0.7049    -1.9279 N.am    
  25 C25            0.2667    -1.8622    -2.4148 C.2     
  26 C26           -0.5544    -2.6831    -3.3754 C.3     
  27 O27            1.3685    -2.2429    -2.0798 O.2     
  28 N28           -3.5627     6.6599     5.0961 N.2     
  29 N29           -4.2397     5.4376     5.1757 N.pl3   
  30 C30           -4.0753     4.7488     4.0382 C.2     
  31 C31           -5.0134     4.9787     6.3320 C.3     
  32 H32            2.4650     1.9453     1.7222 H       
  33 H33            2.5496    -0.5123     1.6737 H       
  34 H34           -0.1451     1.9245    -1.6648 H       
  35 H35           -1.3607     7.0834    -0.5429 H       
  36 H36           -2.1537     5.4922    -0.6300 H       
  37 H37            5.4766     6.2014     0.4022 H       
  38 H38            4.6284     4.8612     1.2100 H       
  39 H39            4.7448     4.8992    -0.5658 H       
  40 H40            1.2893    -1.7577    -0.0330 H       
  41 H41           -1.0962     8.2336     1.5444 H       
  42 H42           -1.9217     8.6375     3.7883 H       
  43 H43           -2.9958     4.4350     1.3326 H       
  44 H44           -1.0720    -0.3637    -2.2503 H       
  45 H45           -0.7695    -2.0928    -4.2661 H       
  46 H46            0.0022    -3.5768    -3.6575 H       
  47 H47           -1.4900    -2.9736    -2.8974 H       
  48 H48           -4.4856     3.7738     3.8207 H       
  49 H49           -6.0481     5.3060     6.2299 H       
  50 H50           -4.9799     3.8905     6.3829 H       
  51 H51           -4.5879     5.3984     7.2436 H       
@<TRIPOS>BOND
   1    1    2 ar
   2    1    5 ar
   3    1   32 1
   4    2   18 ar
   5    2   33 1
   6    3    4 ar
   7    3   24 1
   8    3   18 ar
   9    4    5 ar
  10    4   34 1
  11    5    6 1
  12    6    7 am
  13    6   11 1
  14    7    8 am
  15    7   14 2
  16    8    9 am
  17    8   13 1
  18    9   10 1
  19    9   12 2
  20   10   11 2
  21   10   16 1
  22   13   15 1
  23   13   35 1
  24   13   36 1
  25   15   19 ar
  26   15   23 ar
  27   16   17 1
  28   17   37 1
  29   17   38 1
  30   17   39 1
  31   18   40 1
  32   19   20 ar
  33   19   41 1
  34   20   21 ar
  35   20   42 1
  36   21   22 ar
  37   21   28 2
  38   22   23 ar
  39   22   30 2
  40   23   43 1
  41   24   25 am
  42   24   44 1
  43   25   26 1
  44   25   27 2
  45   26   45 1
  46   26   46 1
  47   26   47 1
  48   28   29 1
  49   29   30 1
  50   29   31 1
  51   30   48 1
  52   31   49 1
  53   31   50 1
  54   31   51 1

#	End of record

