#	Name: ASD01910603
#	Creating user name:	WinNT
#	Creation time:	15. 06. 2019 19:56

#	Modifying user name:	WinNT
#	Modification time:	15. 06. 2019 19:56

#	Program:	/corina/corina34_cracker 3.40 0067  02.08.2006

@<TRIPOS>MOLECULE
ASD01910603
  42   45    0    0    0
SMALL
NO_CHARGES


@<TRIPOS>ATOM
   1 C1            -0.5949     2.2200     0.1993 C.ar    
   2 N2            -0.7104     0.9078     0.2609 N.ar    
   3 C3             0.3418     0.1136     0.2992 C.ar    
   4 C4             1.6215     0.6307     0.2765 C.ar    
   5 C5             1.7914     2.0179     0.2114 C.ar    
   6 C6             0.6471     2.8219     0.1721 C.ar    
   7 C7             3.1437     2.6180     0.1853 C.2     
   8 N8             3.4343     3.9045     0.1251 N.2     
   9 C9             4.7747     3.9711     0.1241 C.2     
  10 N10            5.2292     2.7541     0.1823 N.2     
  11 O11            4.3127     1.9608     0.2241 O.3     
  12 C12            5.6032     5.2286     0.0662 C.3     
  13 C13            6.4845     5.3176     1.3142 C.3     
  14 C14            7.3022     6.6106     1.2722 C.3     
  15 C15            8.2107     6.5957     0.0388 C.3     
  16 N16            7.3846     6.3651    -1.1542 N.am    
  17 C17            6.4924     5.1980    -1.1809 C.3     
  18 C18            7.4442     7.2080    -2.2041 C.2     
  19 C19            6.7081     6.8943    -3.4459 C.ar    
  20 O20            8.1037     8.2265    -2.1292 O.2     
  21 C21            6.0315     7.8969    -4.1412 C.ar    
  22 N22            5.3749     7.6188    -5.2483 N.ar    
  23 C23            5.3292     6.3941    -5.7428 C.ar    
  24 C24            5.9768     5.3429    -5.1097 C.ar    
  25 C25            6.6831     5.5859    -3.9475 C.ar    
  26 F26            4.6409     6.1621    -6.8819 F       
  27 H27           -1.4842     2.8319     0.1651 H       
  28 H28            0.2002    -0.9559     0.3494 H       
  29 H29            2.4785    -0.0256     0.3088 H       
  30 H30            0.7341     3.8972     0.1212 H       
  31 H31            4.9449     6.0963     0.0230 H       
  32 H32            5.8552     5.3147     2.2041 H       
  33 H33            7.1593     4.4620     1.3440 H       
  34 H34            6.6283     7.4655     1.2174 H       
  35 H35            7.9122     6.6847     2.1725 H       
  36 H36            8.7216     7.5544    -0.0503 H       
  37 H37            8.9447     5.7957     0.1352 H       
  38 H38            7.0863     4.2840    -1.1839 H       
  39 H39            5.8697     5.2345    -2.0747 H       
  40 H40            6.0461     8.9103    -3.7679 H       
  41 H41            5.9324     4.3461    -5.5232 H       
  42 H42            7.1968     4.7864    -3.4344 H       
@<TRIPOS>BOND
   1    1    2 ar
   2    1    6 ar
   3    1   27 1
   4    2    3 ar
   5    3    4 ar
   6    3   28 1
   7    4    5 ar
   8    4   29 1
   9    5    6 ar
  10    5    7 1
  11    6   30 1
  12    7    8 2
  13    7   11 1
  14    8    9 1
  15    9   10 2
  16    9   12 1
  17   10   11 1
  18   12   13 1
  19   12   17 1
  20   12   31 1
  21   13   14 1
  22   13   32 1
  23   13   33 1
  24   14   15 1
  25   14   34 1
  26   14   35 1
  27   15   16 1
  28   15   36 1
  29   15   37 1
  30   16   17 1
  31   16   18 am
  32   17   38 1
  33   17   39 1
  34   18   19 1
  35   18   20 2
  36   19   21 ar
  37   19   25 ar
  38   21   22 ar
  39   21   40 1
  40   22   23 ar
  41   23   24 ar
  42   23   26 1
  43   24   25 ar
  44   24   41 1
  45   25   42 1

#	End of record

