#	Name: ASD01948205
#	Creating user name:	WinNT
#	Creation time:	15. 06. 2019 20:13

#	Modifying user name:	WinNT
#	Modification time:	15. 06. 2019 20:13

#	Program:	/corina/corina34_cracker 3.40 0067  02.08.2006

@<TRIPOS>MOLECULE
ASD01948205
  49   50    0    0    0
SMALL
NO_CHARGES


@<TRIPOS>ATOM
   1 C1             0.5873     0.3519     0.9919 C.ar    
   2 C2            -0.0735     0.1677    -0.2183 C.ar    
   3 C3             0.5662     0.5090    -1.4291 C.ar    
   4 C4             1.8535     1.0279    -1.4116 C.ar    
   5 C5             2.5147     1.2117    -0.2006 C.ar    
   6 C6             1.8801     0.8732     1.0064 C.ar    
   7 C7            -0.1349     0.3133    -2.7168 C.2     
   8 C8             4.7032    -0.4978     0.0438 C.ar    
   9 C9             4.8956     0.8750    -0.0285 C.ar    
  10 N10            3.7995     1.7292    -0.1854 N.pl3   
  11 C11            5.7881    -1.3392     0.1993 C.ar    
  12 C12            7.0650    -0.8162     0.2835 C.ar    
  13 C13            7.2623     0.5510     0.2116 C.ar    
  14 C14            6.1818     1.3991     0.0560 C.ar    
  15 F15            6.3743     2.7345    -0.0143 F       
  16 Si16           8.5278    -1.9588     0.4943 Si      
  17 O17           -1.2610    -0.1411    -2.7321 O.2     
  18 C18            2.5823     1.0687     2.2890 C.2     
  19 O19            3.6662     1.6172     2.3108 O.2     
  20 C20            9.1761    -2.4532    -1.1808 C.3     
  21 C21            9.8687    -1.0820     1.4451 C.3     
  22 C22            7.9974    -3.4806     1.4289 C.3     
  23 C23           -1.4014    -0.3681    -0.2355 C.1     
  24 N24           -2.4547    -0.7932    -0.2492 N.1     
  25 O25            2.0216     0.6389     3.4364 O.3     
  26 C26            2.7692     0.8648     4.6605 C.3     
  27 O27            0.4757     0.6390    -3.8724 O.3     
  28 C28           -0.2721     0.4201    -5.0976 C.3     
  29 H29            0.0975     0.0954     1.9197 H       
  30 H30            2.3426     1.2889    -2.3384 H       
  31 H31            3.7058    -0.9077    -0.0170 H       
  32 H32            3.9389     2.6841    -0.2837 H       
  33 H33            5.6383    -2.4073     0.2555 H       
  34 H34            8.2612     0.9563     0.2780 H       
  35 H35            9.4864    -1.5628    -1.7276 H       
  36 H36           10.0296    -3.1199    -1.0577 H       
  37 H37            8.3915    -2.9662    -1.7371 H       
  38 H38            9.4893    -0.7927     2.4252 H       
  39 H39           10.7222    -1.7486     1.5682 H       
  40 H40           10.1790    -0.1916     0.8983 H       
  41 H41            7.2129    -3.9936     0.8727 H       
  42 H42            8.8509    -4.1473     1.5520 H       
  43 H43            7.6181    -3.1913     2.4090 H       
  44 H44            2.9301     1.9343     4.7958 H       
  45 H45            2.2067     0.4719     5.5075 H       
  46 H46            3.7320     0.3577     4.5971 H       
  47 H47           -0.5225    -0.6370    -5.1865 H       
  48 H48           -1.1885     1.0098    -5.0742 H       
  49 H49            0.3332     0.7232    -5.9519 H       
@<TRIPOS>BOND
   1    1    2 ar
   2    1    6 ar
   3    1   29 1
   4    2    3 ar
   5    2   23 1
   6    3    4 ar
   7    3    7 1
   8    4    5 ar
   9    4   30 1
  10    5    6 ar
  11    5   10 1
  12    6   18 1
  13    7   17 2
  14    7   27 1
  15    8    9 ar
  16    8   11 ar
  17    8   31 1
  18    9   10 1
  19    9   14 ar
  20   10   32 1
  21   11   12 ar
  22   11   33 1
  23   12   13 ar
  24   12   16 1
  25   13   14 ar
  26   13   34 1
  27   14   15 1
  28   16   20 1
  29   16   21 1
  30   16   22 1
  31   18   19 2
  32   18   25 1
  33   20   35 1
  34   20   36 1
  35   20   37 1
  36   21   38 1
  37   21   39 1
  38   21   40 1
  39   22   41 1
  40   22   42 1
  41   22   43 1
  42   23   24 3
  43   25   26 1
  44   26   44 1
  45   26   45 1
  46   26   46 1
  47   27   28 1
  48   28   47 1
  49   28   48 1
  50   28   49 1

#	End of record

