#	Name: ASD00845150
#	Creating user name:	WinNT
#	Creation time:	15. 06. 2019 18:51

#	Modifying user name:	WinNT
#	Modification time:	15. 06. 2019 18:51

#	Program:	/corina/corina34_cracker 3.40 0067  02.08.2006

@<TRIPOS>MOLECULE
ASD00845150
  90   95    0    0    0
SMALL
NO_CHARGES


@<TRIPOS>ATOM
   1 C1            -0.0167     1.3829     0.0096 C.ar    
   2 C2             0.0021    -0.0041     0.0020 C.ar    
   3 C3             1.2143    -0.6791    -0.0132 C.ar    
   4 C4             2.3989     0.0312    -0.0207 C.ar    
   5 C5             2.3774     1.4139    -0.0126 C.ar    
   6 C6             1.1710     2.0888     0.0021 C.ar    
   7 C7             1.2384    -2.1858    -0.0210 C.3     
   8 C8             0.4954    -2.7222    -1.2260 C.2     
   9 O9             2.6066    -2.6718    -0.0089 O.3     
  10 C10            3.3986    -2.2936    -1.0299 C.2     
  11 N11            4.6795    -2.7098    -1.0791 N.am    
  12 O12            2.9584    -1.5772    -1.9071 O.2     
  13 C13            5.5560    -2.3055    -2.1868 C.3     
  14 C14            6.1676    -3.5616    -2.8152 C.3     
  15 C15            6.8659    -4.3825    -1.7286 C.3     
  16 C16            5.8415    -4.8177    -0.6783 C.3     
  17 C17            5.2278    -3.5713    -0.0227 C.3     
  18 N18            7.4821    -5.5711    -2.3333 N.3     
  19 C19            8.2627    -6.3224    -1.3403 C.3     
  20 C20            8.8209    -7.5916    -1.9884 C.3     
  21 N21            9.6550    -7.2237    -3.1411 N.3     
  22 C22            8.8744    -6.4724    -4.1340 C.3     
  23 C23            8.3162    -5.2033    -3.4859 C.3     
  24 C24           10.2712    -8.4123    -3.7457 C.3     
  25 O25            0.7747    -2.5266    -2.3899 O.2     
  26 N26           -0.5308    -3.4561    -0.7646 N.am    
  27 C27            0.4677    -2.7343     1.1584 C.ar    
  28 C28           -0.5778    -3.4853     0.6264 C.ar    
  29 C29            0.6314    -2.6120     2.5149 C.ar    
  30 C30           -0.2617    -3.2488     3.3840 C.ar    
  31 C31           -1.3150    -4.0053     2.8564 C.ar    
  32 C32           -1.4681    -4.1216     1.4914 C.ar    
  33 F33           -2.1826    -4.6239     3.6870 F       
  34 C34           -0.9796    -5.8517    -2.0429 C.ar    
  35 C35           -1.3052    -6.8928    -1.1934 C.ar    
  36 C36           -0.1592    -6.0764    -3.1329 C.ar    
  37 C37            0.3374    -7.3424    -3.3757 C.ar    
  38 C38            0.0123    -8.3888    -2.5248 C.ar    
  39 C39           -0.8108    -8.1606    -1.4316 C.ar    
  40 O40            0.4992    -9.6352    -2.7618 O.3     
  41 H41           -1.9463    -6.7147    -0.3427 H       
  42 C42            0.1228   -10.6640    -1.8442 C.3     
  43 C43           10.9221    -8.0285    -5.0760 C.3     
  44 O44           -1.1648    -0.7006     0.0099 O.3     
  45 C45           -2.3744     0.0601     0.0260 C.3     
  46 C46           -3.5740    -0.8895     0.0328 C.3     
  47 F47           -3.5417    -1.6899    -1.1142 F       
  48 F48           -3.5190    -1.7022     1.1702 F       
  49 C49           -0.0993    -3.1278     4.8016 C.1     
  50 N50            0.0296    -3.0319     5.9262 N.1     
  51 S51           -1.6173    -4.2372    -1.7401 S.o2    
  52 O52           -2.7976    -4.4103    -0.9681 O.2     
  53 O53           -1.5974    -3.5574    -2.9878 O.2     
  54 H54           -0.9590     1.9106     0.0170 H       
  55 H55            3.3426    -0.4937    -0.0325 H       
  56 H56            3.3047     1.9675    -0.0178 H       
  57 H57            1.1569     3.1687     0.0084 H       
  58 H58            4.9741    -1.7685    -2.9359 H       
  59 H59            6.3505    -1.6625    -1.8082 H       
  60 H60            5.3799    -4.1598    -3.2733 H       
  61 H61            6.8934    -3.2718    -3.5751 H       
  62 H62            7.6370    -3.7755    -1.2542 H       
  63 H63            5.0568    -5.4040    -1.1564 H       
  64 H64            6.3352    -5.4219     0.0829 H       
  65 H65            5.9970    -3.0339     0.5320 H       
  66 H66            4.4280    -3.8709     0.6546 H       
  67 H67            9.0862    -5.7046    -0.9821 H       
  68 H68            7.6203    -6.5941    -0.5027 H       
  69 H69            9.4242    -8.1358    -1.2619 H       
  70 H70            7.9968    -8.2220    -2.3223 H       
  71 H71            9.5168    -6.2007    -4.9716 H       
  72 H72            8.0509    -7.0902    -4.4923 H       
  73 H73            7.7128    -4.6591    -4.2125 H       
  74 H74            9.1403    -4.5728    -3.1520 H       
  75 H75           11.0295    -8.8110    -3.0718 H       
  76 H76            9.5063    -9.1690    -3.9204 H       
  77 H77            1.4477    -2.0262     2.9111 H       
  78 H78           -2.2823    -4.7066     1.0898 H       
  79 H79            0.0934    -5.2616    -3.7953 H       
  80 H80            0.9780    -7.5175    -4.2275 H       
  81 H81           -1.0657    -8.9736    -0.7679 H       
  82 H82            0.4653   -10.4012    -0.8433 H       
  83 H83           -0.9621   -10.7691    -1.8411 H       
  84 H84            0.5783   -11.6065    -2.1482 H       
  85 H85           10.1638    -7.6298    -5.7499 H       
  86 H86           11.6870    -7.2718    -4.9013 H       
  87 H87           11.3793    -8.9104    -5.5247 H       
  88 H88           -2.3995     0.6837     0.9196 H       
  89 H89           -2.4172     0.6932    -0.8603 H       
  90 H90           -4.4966    -0.3093     0.0451 H       
@<TRIPOS>BOND
   1    1    2 ar
   2    1    6 ar
   3    1   54 1
   4    2    3 ar
   5    2   44 1
   6    3    4 ar
   7    3    7 1
   8    4    5 ar
   9    4   55 1
  10    5    6 ar
  11    5   56 1
  12    6   57 1
  13    7    8 1
  14    7    9 1
  15    7   27 1
  16    8   25 2
  17    8   26 am
  18    9   10 1
  19   10   11 am
  20   10   12 2
  21   11   13 1
  22   11   17 1
  23   13   14 1
  24   13   58 1
  25   13   59 1
  26   14   15 1
  27   14   60 1
  28   14   61 1
  29   15   16 1
  30   15   18 1
  31   15   62 1
  32   16   17 1
  33   16   63 1
  34   16   64 1
  35   17   65 1
  36   17   66 1
  37   18   19 1
  38   18   23 1
  39   19   20 1
  40   19   67 1
  41   19   68 1
  42   20   21 1
  43   20   69 1
  44   20   70 1
  45   21   22 1
  46   21   24 1
  47   22   23 1
  48   22   71 1
  49   22   72 1
  50   23   73 1
  51   23   74 1
  52   24   43 1
  53   24   75 1
  54   24   76 1
  55   26   51 am
  56   26   28 1
  57   27   28 ar
  58   27   29 ar
  59   28   32 ar
  60   29   30 ar
  61   29   77 1
  62   30   31 ar
  63   30   49 1
  64   31   32 ar
  65   31   33 1
  66   32   78 1
  67   34   35 ar
  68   34   36 ar
  69   34   51 1
  70   35   41 1
  71   35   39 ar
  72   36   37 ar
  73   36   79 1
  74   37   38 ar
  75   37   80 1
  76   38   39 ar
  77   38   40 1
  78   39   81 1
  79   40   42 1
  80   42   82 1
  81   42   83 1
  82   42   84 1
  83   43   85 1
  84   43   86 1
  85   43   87 1
  86   44   45 1
  87   45   46 1
  88   45   88 1
  89   45   89 1
  90   46   47 1
  91   46   48 1
  92   46   90 1
  93   49   50 3
  94   51   52 2
  95   51   53 2

#	End of record

