#	Name: ASD01884997
#	Creating user name:	WinNT
#	Creation time:	15. 06. 2019 19:49

#	Modifying user name:	WinNT
#	Modification time:	15. 06. 2019 19:49

#	Program:	/corina/corina34_cracker 3.40 0067  02.08.2006

@<TRIPOS>MOLECULE
ASD01884997
  41   44    0    0    0
SMALL
NO_CHARGES


@<TRIPOS>ATOM
   1 N1            -0.0168     1.3859     0.0097 N.pl3   
   2 C2             0.0021    -0.0041     0.0020 C.ar    
   3 C3            -1.2001    -0.7065     0.0039 C.ar    
   4 C4            -1.1756    -2.0863    -0.0041 C.ar    
   5 C5             0.0714    -2.7310    -0.0141 C.ar    
   6 C6             1.2339    -1.9565    -0.0154 C.ar    
   7 N7             1.1636    -0.6410    -0.0125 N.ar    
   8 C8             0.1505    -4.1607    -0.0222 C.1     
   9 C9             0.2153    -5.3329    -0.0289 C.1     
  10 C10            0.2944    -6.7627    -0.0371 C.2     
  11 C11           -0.7644    -7.6494    -0.0425 C.2     
  12 N12           -0.2730    -8.8848    -0.0499 N.2     
  13 C13            1.0548    -8.8412    -0.0496 C.2     
  14 N14            1.9734    -9.8178    -0.0554 N.2     
  15 C15            3.2555    -9.5435    -0.0535 C.2     
  16 C16            3.6958    -8.2026    -0.0449 C.2     
  17 C17            2.7660    -7.1995    -0.0390 C.2     
  18 N18            1.4432    -7.5263    -0.0471 N.pl3   
  19 C19            5.1457    -7.8857    -0.0418 C.ar    
  20 C20            5.7187    -7.2268    -1.1279 C.ar    
  21 C21            7.0663    -6.9333    -1.1220 C.ar    
  22 C22            7.8518    -7.2935    -0.0356 C.ar    
  23 O23            9.1792    -7.0026    -0.0323 O.3     
  24 C24            9.9281    -7.4020     1.1173 C.3     
  25 F25            9.8472    -8.7906     1.2673 F       
  26 F26           11.2663    -7.0276     0.9554 F       
  27 F27            9.4039    -6.7788     2.2549 F       
  28 C28            7.2838    -7.9500     1.0477 C.ar    
  29 C29            5.9357    -8.2414     1.0498 C.ar    
  30 H30            0.8166     1.8823     0.0044 H       
  31 H31           -0.8633     1.8595     0.0163 H       
  32 H32           -2.1416    -0.1773     0.0120 H       
  33 H33           -2.0931    -2.6561    -0.0025 H       
  34 H34            2.1993    -2.4406    -0.0229 H       
  35 H35           -1.8115    -7.3848    -0.0410 H       
  36 H36            3.9774   -10.3467    -0.0583 H       
  37 H37            3.0753    -6.1648    -0.0319 H       
  38 H38            5.1081    -6.9466    -1.9736 H       
  39 H39            7.5110    -6.4230    -1.9636 H       
  40 H40            7.8974    -8.2290     1.8916 H       
  41 H41            5.4935    -8.7485     1.8947 H       
@<TRIPOS>BOND
   1    1    2 1
   2    1   30 1
   3    1   31 1
   4    2    7 ar
   5    2    3 ar
   6    3    4 ar
   7    3   32 1
   8    4    5 ar
   9    4   33 1
  10    5    6 ar
  11    5    8 1
  12    6    7 ar
  13    6   34 1
  14    8    9 3
  15    9   10 1
  16   10   18 1
  17   10   11 2
  18   11   12 1
  19   11   35 1
  20   12   13 2
  21   13   18 1
  22   13   14 1
  23   14   15 2
  24   15   16 1
  25   15   36 1
  26   16   17 2
  27   16   19 1
  28   17   18 1
  29   17   37 1
  30   19   29 ar
  31   19   20 ar
  32   20   21 ar
  33   20   38 1
  34   21   22 ar
  35   21   39 1
  36   22   23 1
  37   22   28 ar
  38   23   24 1
  39   24   25 1
  40   24   26 1
  41   24   27 1
  42   28   29 ar
  43   28   40 1
  44   29   41 1

#	End of record

