#	Name: ASD01001205
#	Creating user name:	WinNT
#	Creation time:	15. 06. 2019 18:55

#	Modifying user name:	WinNT
#	Modification time:	15. 06. 2019 18:55

#	Program:	/corina/corina34_cracker 3.40 0067  02.08.2006

@<TRIPOS>MOLECULE
ASD01001205
  59   62    0    0    0
SMALL
NO_CHARGES


@<TRIPOS>ATOM
   1 C1            -0.0184     1.5043     0.0103 C.3     
   2 C2             0.0021    -0.0041     0.0020 C.ar    
   3 C3            -0.7627     2.0222    -1.2180 C.3     
   4 C4            -0.1812    -0.7221    -1.1695 C.ar    
   5 C5             0.2104    -0.6770     1.1933 C.ar    
   6 C6            -0.1704     1.3778    -2.4745 C.3     
   7 C7            -0.6593     3.5425    -1.3061 C.3     
   8 C8            -0.1493    -2.1123    -1.1432 C.ar    
   9 N9            -0.4069    -0.0706    -2.3871 N.pl3   
  10 C10           -0.8475     1.9330    -3.7010 C.ar    
  11 C11            0.8142     3.9589    -1.2772 C.3     
  12 C12            0.0609    -2.7763     0.0488 C.ar    
  13 C13            0.2399    -2.0584     1.2168 C.ar    
  14 C14            1.4593     3.4012    -0.0046 C.3     
  15 C15            2.9412     3.7804     0.0262 C.3     
  16 N16            3.5584     3.2449     1.2470 N.3     
  17 O17            1.3301     1.9793    -0.0000 O.3     
  18 C18           -0.2308     2.9235    -4.4423 C.ar    
  19 C19           -0.8518     3.4329    -5.5673 C.ar    
  20 C20           -2.0893     2.9513    -5.9514 C.ar    
  21 C21           -2.7056     1.9601    -5.2107 C.ar    
  22 C22           -2.0826     1.4478    -4.0881 C.ar    
  23 C23            4.9848     3.5903     1.3109 C.3     
  24 C24            0.4674    -2.7837     2.5180 C.3     
  25 C25            0.4544    -4.2933     2.2694 C.3     
  26 C26            1.8219    -2.3743     3.1000 C.3     
  27 C27           -0.6430    -2.4199     3.5056 C.3     
  28 H28           -0.5200     1.8556     0.9121 H       
  29 H29           -1.8125     1.7376    -1.1475 H       
  30 H30            0.3508    -0.1203     2.1081 H       
  31 H31            0.9005     1.5752    -2.5213 H       
  32 H32           -1.1150     3.8841    -2.2354 H       
  33 H33           -1.1801     3.9914    -0.4603 H       
  34 H34           -0.2894    -2.6727    -2.0558 H       
  35 H35           -0.7150    -0.5669    -3.1615 H       
  36 H36            1.3249     3.5566    -2.1521 H       
  37 H37            0.8867     5.0465    -1.2771 H       
  38 H38            0.0852    -3.8559     0.0690 H       
  39 H39            0.9585     3.8166     0.8700 H       
  40 H40            3.4415     3.3622    -0.8473 H       
  41 H41            3.0388     4.8659     0.0158 H       
  42 H42            3.0712     3.5671     2.0698 H       
  43 H43            0.7361     3.2997    -4.1422 H       
  44 H44           -0.3703     4.2072    -6.1460 H       
  45 H45           -2.5749     3.3498    -6.8300 H       
  46 H46           -3.6726     1.5842    -5.5106 H       
  47 H47           -2.5641     0.6734    -3.5094 H       
  48 H48            5.4170     3.1817     2.2243 H       
  49 H49            5.4992     3.1708     0.4463 H       
  50 H50            5.0965     4.6745     1.3094 H       
  51 H51            1.2455    -4.5525     1.5658 H       
  52 H52            0.6190    -4.8179     3.2106 H       
  53 H53           -0.5105    -4.5850     1.8548 H       
  54 H54            1.8311    -1.2988     3.2771 H       
  55 H55            1.9865    -2.8989     4.0412 H       
  56 H56            2.6130    -2.6335     2.3964 H       
  57 H57           -1.6080    -2.7115     3.0910 H       
  58 H58           -0.4784    -2.9445     4.4468 H       
  59 H59           -0.6338    -1.3444     3.6827 H       
@<TRIPOS>BOND
   1    1    2 1
   2    1   17 1
   3    1    3 1
   4    1   28 1
   5    2    4 ar
   6    2    5 ar
   7    3    7 1
   8    3    6 1
   9    3   29 1
  10    4    8 ar
  11    4    9 1
  12    5   13 ar
  13    5   30 1
  14    6    9 1
  15    6   10 1
  16    6   31 1
  17    7   11 1
  18    7   32 1
  19    7   33 1
  20    8   12 ar
  21    8   34 1
  22    9   35 1
  23   10   18 ar
  24   10   22 ar
  25   11   14 1
  26   11   36 1
  27   11   37 1
  28   12   13 ar
  29   12   38 1
  30   13   24 1
  31   14   15 1
  32   14   17 1
  33   14   39 1
  34   15   16 1
  35   15   40 1
  36   15   41 1
  37   16   23 1
  38   16   42 1
  39   18   19 ar
  40   18   43 1
  41   19   20 ar
  42   19   44 1
  43   20   21 ar
  44   20   45 1
  45   21   22 ar
  46   21   46 1
  47   22   47 1
  48   23   48 1
  49   23   49 1
  50   23   50 1
  51   24   25 1
  52   24   26 1
  53   24   27 1
  54   25   51 1
  55   25   52 1
  56   25   53 1
  57   26   54 1
  58   26   55 1
  59   26   56 1
  60   27   57 1
  61   27   58 1
  62   27   59 1

#	End of record

