#	Name: ASD01820143
#	Creating user name:	WinNT
#	Creation time:	15. 06. 2019 19:36

#	Modifying user name:	WinNT
#	Modification time:	15. 06. 2019 19:36

#	Program:	/corina/corina34_cracker 3.40 0067  02.08.2006

@<TRIPOS>MOLECULE
ASD01820143
 102  114    0    0    0
SMALL
NO_CHARGES


@<TRIPOS>ATOM
   1 N1            -0.0171     1.4097     0.0098 N.3     
   2 C2             0.0021    -0.0041     0.0020 C.3     
   3 C3             1.0901    -0.7883     0.7230 C.3     
   4 C4             2.3401     0.0471     1.0156 C.3     
   5 N5             3.1268     0.1268    -0.2111 N.3     
   6 C6             2.7207     0.7897    -1.3888 C.3     
   7 C7             1.8834     2.0583    -1.3389 C.3     
   8 C8             1.1695     2.2620     0.0030 C.3     
   9 C9             3.3312    -0.7848     1.8766 C.3     
  10 C10            3.9589    -1.6944     0.8931 C.ar    
  11 C11            3.8032    -1.0756    -0.3675 C.ar    
  12 C12            4.5997    -2.9082     1.0270 C.ar    
  13 C13            5.0921    -3.5103    -0.1249 C.ar    
  14 C14            4.9427    -2.9131    -1.3603 C.ar    
  15 C15            4.3000    -1.6933    -1.5114 C.ar    
  16 C16            2.8315     3.2288    -1.6108 C.3     
  17 C17            2.0790     4.5497    -1.7092 C.3     
  18 C18            1.3873     4.7902    -0.3916 C.3     
  19 C19            0.4674     3.6462    -0.0009 C.3     
  20 C20           -0.7369     3.4169    -0.8255 C.ar    
  21 C21           -0.9976     2.0310    -0.7510 C.ar    
  22 C22           -1.5446     4.2631    -1.5584 C.ar    
  23 C23           -2.6407     3.7079    -2.2071 C.ar    
  24 C24           -2.9126     2.3572    -2.1251 C.ar    
  25 C25           -2.1037     1.4921    -1.4029 C.ar    
  26 C26            0.1247     4.0644     1.4525 C.3     
  27 C27            3.7702     3.2924    -0.4231 C.2     
  28 N28            2.2934     4.9680     0.7508 N.4     
  29 C29            3.4676     4.1088     0.7768 C.3     
  30 C30            1.4991     4.5733     1.9621 C.3     
  31 H31            0.7834     5.6929    -0.4795 H       
  32 H32            1.8417     2.2248     0.8503 H       
  33 H33            1.1323     2.0301    -2.1397 H       
  34 H34            3.3929     3.0582    -2.5275 H       
  35 O35            3.8689     0.9894    -2.2445 O.3     
  36 C36            4.8107     2.5009    -0.5141 C.2     
  37 C37            4.9948     1.5952    -1.6602 C.3     
  38 H38            2.0985     0.0477    -1.9357 H       
  39 H39            2.1212     0.9630     1.5540 H       
  40 O40           -1.2952    -0.4911     0.4235 O.3     
  41 C41            2.6954    -1.4198     3.0979 C.3     
  42 C42            0.4909    -1.3039     2.0325 C.3     
  43 C43            1.4637    -2.2231     2.7604 C.3     
  44 H44            1.3739    -1.6569     0.1112 H       
  45 C45            0.2363    -0.0880     2.8984 C.2     
  46 C46            1.1926     0.3539     3.9403 C.3     
  47 N47            2.4743    -0.3229     4.0458 N.4     
  48 C48            4.3417     0.1812     2.5432 C.3     
  49 C49            3.5260     0.6998     3.7549 C.3     
  50 H50            3.4280    -2.0963     3.5426 H       
  51 H51           -0.4407    -1.8342     1.8432 H       
  52 C52           -0.8850     0.5376     2.6424 C.2     
  53 C53           -1.8173     0.0949     1.5929 C.3     
  54 H54            0.0757    -0.2935    -1.0635 H       
  55 C55            2.6938     6.3749     0.8617 C.3     
  56 C56            2.6508    -0.8224     5.4212 C.3     
  57 C57            3.6008     6.5379     2.0096 C.1     
  58 C58            4.3242     6.6679     2.9251 C.1     
  59 C59            2.4294     0.2769     6.3747 C.1     
  60 C60            2.2529     1.1537     7.1352 C.1     
  61 C61            5.2312     6.8309     4.0729 C.3     
  62 C62            2.0315     2.2530     8.0887 C.3     
  63 H63            4.7152    -3.3688     1.9971 H       
  64 H64            5.6039    -4.4587    -0.0488 H       
  65 H65            5.3410    -3.4073    -2.2335 H       
  66 H66            4.1885    -1.2414    -2.4855 H       
  67 H67            2.7769     5.3605    -1.9183 H       
  68 H68            1.3373     4.4923    -2.5073 H       
  69 H69           -1.3289     5.3198    -1.6198 H       
  70 H70           -3.2941     4.3479    -2.7816 H       
  71 H71           -3.7799     1.9640    -2.6336 H       
  72 H72           -2.3259     0.4369    -1.3516 H       
  73 H73           -0.6089     4.8681     1.4577 H       
  74 H74           -0.2120     3.2090     2.0325 H       
  75 H75            3.4005     3.4348     1.6264 H       
  76 H76            4.3332     4.7538     0.9559 H       
  77 H77            1.3481     5.4491     2.5973 H       
  78 H78            2.0010     3.7939     2.5234 H       
  79 H79            5.5515     2.5038     0.2665 H       
  80 H80            5.6709     0.8016    -1.3437 H       
  81 H81            5.5082     2.1582    -2.4394 H       
  82 H82            1.7355    -3.0571     2.1128 H       
  83 H83            1.0048    -2.6019     3.6728 H       
  84 H84            1.3685     1.4185     3.7953 H       
  85 H85            0.6901     0.2512     4.9062 H       
  86 H86            5.2256    -0.3599     2.8776 H       
  87 H87            4.6038     0.9948     1.8725 H       
  88 H88            3.0809     1.6622     3.5174 H       
  89 H89            4.1868     0.8046     4.6185 H       
  90 H90           -1.1379     1.4146     3.2153 H       
  91 H91           -2.4136     0.9563     1.2954 H       
  92 H92           -2.5008    -0.6252     2.0450 H       
  93 H93            3.2048     6.6804    -0.0513 H       
  94 H94            1.8087     6.9942     1.0073 H       
  95 H95            1.9330    -1.6199     5.6130 H       
  96 H96            3.6632    -1.2084     5.5404 H       
  97 H97            5.5286     7.8763     4.1554 H       
  98 H98            4.7202     6.5254     4.9860 H       
  99 H99            6.1163     6.2116     3.9274 H       
 100 H100           2.1620     1.8836     9.1059 H       
 101 H101           2.7494     3.0505     7.8969 H       
 102 H102           1.0191     2.6391     7.9695 H       
@<TRIPOS>BOND
   1    1    2 1
   2    1    8 1
   3    1   21 1
   4    2    3 1
   5    2   40 1
   6    2   54 1
   7    3    4 1
   8    3   44 1
   9    3   42 1
  10    4    5 1
  11    4    9 1
  12    4   39 1
  13    5    6 1
  14    5   11 1
  15    6    7 1
  16    6   35 1
  17    6   38 1
  18    7    8 1
  19    7   33 1
  20    7   16 1
  21    8   19 1
  22    8   32 1
  23    9   10 1
  24    9   41 1
  25    9   48 1
  26   10   11 ar
  27   10   12 ar
  28   11   15 ar
  29   12   13 ar
  30   12   63 1
  31   13   14 ar
  32   13   64 1
  33   14   15 ar
  34   14   65 1
  35   15   66 1
  36   16   17 1
  37   16   27 1
  38   16   34 1
  39   17   18 1
  40   17   67 1
  41   17   68 1
  42   18   19 1
  43   18   28 1
  44   18   31 1
  45   19   20 1
  46   19   26 1
  47   20   21 ar
  48   20   22 ar
  49   21   25 ar
  50   22   23 ar
  51   22   69 1
  52   23   24 ar
  53   23   70 1
  54   24   25 ar
  55   24   71 1
  56   25   72 1
  57   26   30 1
  58   26   73 1
  59   26   74 1
  60   27   36 2
  61   27   29 1
  62   28   29 1
  63   28   55 1
  64   28   30 1
  65   29   75 1
  66   29   76 1
  67   30   77 1
  68   30   78 1
  69   35   37 1
  70   36   37 1
  71   36   79 1
  72   37   80 1
  73   37   81 1
  74   40   53 1
  75   41   47 1
  76   41   50 1
  77   41   43 1
  78   42   43 1
  79   42   45 1
  80   42   51 1
  81   43   82 1
  82   43   83 1
  83   45   46 1
  84   45   52 2
  85   46   47 1
  86   46   84 1
  87   46   85 1
  88   47   56 1
  89   47   49 1
  90   48   49 1
  91   48   86 1
  92   48   87 1
  93   49   88 1
  94   49   89 1
  95   52   53 1
  96   52   90 1
  97   53   91 1
  98   53   92 1
  99   55   57 1
 100   55   93 1
 101   55   94 1
 102   56   59 1
 103   56   95 1
 104   56   96 1
 105   57   58 3
 106   58   61 1
 107   59   60 3
 108   60   62 1
 109   61   97 1
 110   61   98 1
 111   61   99 1
 112   62  100 1
 113   62  101 1
 114   62  102 1

#	End of record

