#	Name: ASD01816987
#	Creating user name:	WinNT
#	Creation time:	15. 06. 2019 19:36

#	Modifying user name:	WinNT
#	Modification time:	15. 06. 2019 19:36

#	Program:	/corina/corina34_cracker 3.40 0067  02.08.2006

@<TRIPOS>MOLECULE
ASD01816987
  60   64    0    0    0
SMALL
NO_CHARGES


@<TRIPOS>ATOM
   1 C1            -0.0168     1.3862     0.0097 C.ar    
   2 C2             0.0021    -0.0041     0.0020 C.ar    
   3 N3             1.1274    -0.6793    -0.0123 N.ar    
   4 C4             2.3109    -0.0604    -0.0203 C.ar    
   5 C5             2.3594     1.3548    -0.0132 C.ar    
   6 C6             1.1626     2.0821     0.0021 C.ar    
   7 C7             3.5128    -0.7990    -0.0362 C.ar    
   8 C8             4.7176    -0.1801    -0.0444 C.ar    
   9 C9             4.8189     1.2191    -0.0374 C.ar    
  10 C10            3.6595     2.0169    -0.0221 C.ar    
  11 C11            6.1194     1.9009    -0.0457 C.2     
  12 N12            6.1139     3.2542    -0.0381 N.am    
  13 C13            4.9427     3.9377    -0.0228 C.2     
  14 N14            3.7793     3.3548    -0.0160 N.2     
  15 O15            7.1626     1.2728    -0.0587 O.2     
  16 C16            3.4551    -2.3049    -0.0437 C.3     
  17 C17            3.2981    -2.7945    -1.4602 C.ar    
  18 C18            4.4139    -3.0676    -2.2363 C.ar    
  19 C19            4.2214    -3.5165    -3.5341 C.ar    
  20 C20            2.9329    -3.6757    -4.0074 C.ar    
  21 N21            1.8944    -3.4057    -3.2407 N.ar    
  22 C22            2.0397    -2.9826    -2.0003 C.ar    
  23 C23            7.3828     3.9864    -0.0458 C.3     
  24 C24            7.4525     4.8730    -1.2908 C.3     
  25 C25            7.4759     4.8589     1.2076 C.3     
  26 C26            8.8011     5.6235     1.1995 C.3     
  27 C27            8.8707     6.5102    -0.0455 C.3     
  28 C28            8.7777     5.6377    -1.2988 C.3     
  29 O29            7.4108     4.0308     2.3703 O.3     
  30 C30            2.7119    -4.1630    -5.4162 C.3     
  31 C31            2.7666    -2.9765    -6.3807 C.3     
  32 C32            3.8030    -5.1703    -5.7846 C.3     
  33 H33           -0.9582     1.9154     0.0170 H       
  34 H34           -0.9341    -0.5426     0.0084 H       
  35 H35            1.1697     3.1621     0.0075 H       
  36 H36            5.6184    -0.7758    -0.0562 H       
  37 H37            4.9771     5.0171    -0.0163 H       
  38 H38            4.3761    -2.7059     0.3794 H       
  39 H39            2.6059    -2.6389     0.5524 H       
  40 H40            5.4094    -2.9335    -1.8396 H       
  41 H41            5.0678    -3.7386    -4.1671 H       
  42 H42            1.1653    -2.7716    -1.4025 H       
  43 H43            8.2111     3.2779    -0.0576 H       
  44 H44            7.3862     4.2514    -2.1837 H       
  45 H45            6.6242     5.5815    -1.2790 H       
  46 H46            6.6476     5.5674     1.2193 H       
  47 H47            8.8673     6.2451     2.0924 H       
  48 H48            9.6293     4.9150     1.1877 H       
  49 H49            8.0425     7.2187    -0.0337 H       
  50 H50            9.8148     7.0549    -0.0512 H       
  51 H51            9.6059     4.9291    -1.3106 H       
  52 H52            8.8273     6.2693    -2.1858 H       
  53 H53            7.4641     4.5182     3.2038 H       
  54 H54            1.7358    -4.6430    -5.4857 H       
  55 H55            3.7427    -2.4964    -6.3112 H       
  56 H56            2.6067    -3.3289    -7.3997 H       
  57 H57            1.9892    -2.2589    -6.1183 H       
  58 H58            4.7792    -4.6902    -5.7151 H       
  59 H59            3.7641    -6.0155    -5.0974 H       
  60 H60            3.6432    -5.5227    -6.8035 H       
@<TRIPOS>BOND
   1    1    2 ar
   2    1    6 ar
   3    1   33 1
   4    2    3 ar
   5    2   34 1
   6    3    4 ar
   7    4    5 ar
   8    4    7 ar
   9    5    6 ar
  10    5   10 ar
  11    6   35 1
  12    7    8 ar
  13    7   16 1
  14    8    9 ar
  15    8   36 1
  16    9   10 ar
  17    9   11 1
  18   10   14 1
  19   11   12 am
  20   11   15 2
  21   12   13 1
  22   12   23 1
  23   13   14 2
  24   13   37 1
  25   16   17 1
  26   16   38 1
  27   16   39 1
  28   17   18 ar
  29   17   22 ar
  30   18   19 ar
  31   18   40 1
  32   19   20 ar
  33   19   41 1
  34   20   21 ar
  35   20   30 1
  36   21   22 ar
  37   22   42 1
  38   23   24 1
  39   23   25 1
  40   23   43 1
  41   24   28 1
  42   24   44 1
  43   24   45 1
  44   25   26 1
  45   25   29 1
  46   25   46 1
  47   26   27 1
  48   26   47 1
  49   26   48 1
  50   27   28 1
  51   27   49 1
  52   27   50 1
  53   28   51 1
  54   28   52 1
  55   29   53 1
  56   30   31 1
  57   30   32 1
  58   30   54 1
  59   31   55 1
  60   31   56 1
  61   31   57 1
  62   32   58 1
  63   32   59 1
  64   32   60 1

#	End of record

