#	Name: ASD03082276
#	Creating user name:	WinNT
#	Creation time:	15. 06. 2019 20:27

#	Modifying user name:	WinNT
#	Modification time:	15. 06. 2019 20:27

#	Program:	/corina/corina34_cracker 3.40 0067  02.08.2006

@<TRIPOS>MOLECULE
ASD03082276
  49   52    0    0    0
SMALL
NO_CHARGES


@<TRIPOS>ATOM
   1 N1             0.0120     1.3997     0.2504 N.am    
   2 N2             0.0091     0.0001     0.1334 N.2     
   3 C3             1.2295    -0.3610    -0.1855 C.2     
   4 N4             2.0016     0.7254    -0.2767 N.2     
   5 C5             1.2889     1.8015    -0.0176 C.2     
   6 N6             1.6540    -1.6723    -0.3955 N.pl3   
   7 C7             0.7807    -2.7364    -0.1550 C.ar    
   8 C8             0.9541    -3.9422    -0.8211 C.ar    
   9 C9             0.0859    -4.9949    -0.5799 C.ar    
  10 C10           -0.9544    -4.8420     0.3264 C.ar    
  11 C11           -1.1259    -3.6411     0.9881 C.ar    
  12 C12           -0.2589    -2.5910     0.7552 C.ar    
  13 O13            0.2526    -6.1763    -1.2305 O.3     
  14 C14            1.7827     3.1955    -0.0171 C.ar    
  15 C15           -1.0364     2.1881     0.5596 C.2     
  16 C16            0.9555     4.2315    -0.4526 C.ar    
  17 C17            1.4194     5.5314    -0.4504 C.ar    
  18 C18            2.7023     5.8112    -0.0182 C.ar    
  19 C19            3.5327     4.7867     0.4164 C.ar    
  20 C20            3.0751     3.4799     0.4241 C.ar    
  21 N21           -2.2668     1.6533     0.6888 N.am    
  22 C22           -3.4064     2.5103     1.0248 C.3     
  23 O23           -0.8724     3.3811     0.7219 O.2     
  24 O24            4.7933     5.0674     0.8398 O.3     
  25 C25            5.1973     6.4378     0.8107 C.3     
  26 C26           -4.6027     1.8552     1.7182 C.3     
  27 C27           -4.7094     2.2874     0.2544 C.3     
  28 C28           -0.6793    -7.2180    -0.9330 C.3     
  29 F29           -1.9729    -6.7918    -1.2530 F       
  30 F30           -0.3636    -8.3549    -1.6845 F       
  31 F31           -0.6140    -7.5269     0.4299 F       
  32 H32            2.5555    -1.8460    -0.7085 H       
  33 H33            1.7638    -4.0593    -1.5261 H       
  34 H34           -1.6310    -5.6626     0.5142 H       
  35 H35           -1.9366    -3.5247     1.6921 H       
  36 H36           -0.3923    -1.6550     1.2773 H       
  37 H37           -0.0471     4.0163    -0.7915 H       
  38 H38            0.7782     6.3324    -0.7877 H       
  39 H39            3.0602     6.8302    -0.0190 H       
  40 H40            3.7200     2.6822     0.7620 H       
  41 H41           -2.3977     0.7009     0.5592 H       
  42 H42           -3.1580     3.5329     1.3089 H       
  43 H43            5.1418     6.8113    -0.2119 H       
  44 H44            4.5366     7.0251     1.4483 H       
  45 H45            6.2218     6.5224     1.1732 H       
  46 H46           -4.5417     0.7867     1.9243 H       
  47 H47           -5.1415     2.4470     2.4582 H       
  48 H48           -5.3183     3.1634     0.0313 H       
  49 H49           -4.7186     1.5031    -0.5025 H       
@<TRIPOS>BOND
   1    1    2 1
   2    1    5 1
   3    1   15 am
   4    2    3 2
   5    3    4 1
   6    3    6 1
   7    4    5 2
   8    5   14 1
   9    6    7 1
  10    6   32 1
  11    7    8 ar
  12    7   12 ar
  13    8    9 ar
  14    8   33 1
  15    9   10 ar
  16    9   13 1
  17   10   11 ar
  18   10   34 1
  19   11   12 ar
  20   11   35 1
  21   12   36 1
  22   13   28 1
  23   14   16 ar
  24   14   20 ar
  25   15   21 am
  26   15   23 2
  27   16   17 ar
  28   16   37 1
  29   17   18 ar
  30   17   38 1
  31   18   19 ar
  32   18   39 1
  33   19   20 ar
  34   19   24 1
  35   20   40 1
  36   21   22 1
  37   21   41 1
  38   22   26 1
  39   22   27 1
  40   22   42 1
  41   24   25 1
  42   25   43 1
  43   25   44 1
  44   25   45 1
  45   26   27 1
  46   26   46 1
  47   26   47 1
  48   27   48 1
  49   27   49 1
  50   28   29 1
  51   28   30 1
  52   28   31 1

#	End of record

