#	Name: ASD01814389
#	Creating user name:	WinNT
#	Creation time:	15. 06. 2019 19:32

#	Modifying user name:	WinNT
#	Modification time:	15. 06. 2019 19:32

#	Program:	/corina/corina34_cracker 3.40 0067  02.08.2006

@<TRIPOS>MOLECULE
ASD01814389
  51   55    0    0    0
SMALL
NO_CHARGES


@<TRIPOS>ATOM
   1 C1            -0.0167     1.3818     0.0096 C.ar    
   2 C2             0.0021    -0.0041     0.0020 C.ar    
   3 C3             1.1970    -0.6935    -0.0127 C.ar    
   4 C4             2.3990     0.0036    -0.0204 C.ar    
   5 C5             2.3750     1.4118    -0.0131 C.ar    
   6 C6             1.1663     2.0939     0.0022 C.ar    
   7 N7             3.6103    -0.6575    -0.0347 N.pl3   
   8 N8             4.7456    -0.0608    -0.0419 N.2     
   9 C9             4.8828     1.2398    -0.0366 C.2     
  10 C10            3.6771     2.1039    -0.0219 C.2     
  11 C11            6.0123     2.1723    -0.0425 C.2     
  12 N12            5.4768     3.4119    -0.0316 N.am    
  13 N13            4.0816     3.3386    -0.0196 N.2     
  14 C14            6.2491     4.6568    -0.0324 C.3     
  15 C15            3.5988    -2.1224    -0.0414 C.3     
  16 C16            3.5818    -2.6181    -1.4645 C.ar    
  17 C17            4.7722    -2.8544    -2.1271 C.ar    
  18 C18            4.7598    -3.3083    -3.4315 C.ar    
  19 C19            3.5505    -3.5277    -4.0773 C.ar    
  20 C20            2.3569    -3.2899    -3.4092 C.ar    
  21 C21            2.3757    -2.8411    -2.1031 C.ar    
  22 N22            3.5347    -3.9879    -5.4013 N.pl3   
  23 C23            2.4325    -4.2410    -6.1428 C.2     
  24 C24            2.8438    -4.6658    -7.3599 C.2     
  25 C25            4.2430    -4.6730    -7.3636 C.2     
  26 N26            4.6578    -4.2612    -6.1926 N.2     
  27 O27            7.1981     1.8866    -0.0544 O.2     
  28 C28            6.5051     5.0973    -1.4751 C.3     
  29 C29            7.3116     6.3975    -1.4759 C.3     
  30 O30            7.2394     4.0808    -2.1603 O.3     
  31 O31            7.4510     6.8707    -2.8170 O.3     
  32 H32           -0.9605     1.9069     0.0170 H       
  33 H33           -0.9294    -0.5506     0.0080 H       
  34 H34            1.1982    -1.7735    -0.0178 H       
  35 H35            1.1511     3.1738     0.0077 H       
  36 H36            5.6890     5.4322     0.4903 H       
  37 H37            7.2014     4.4939     0.4722 H       
  38 H38            4.4906    -2.4951     0.4625 H       
  39 H39            2.7107    -2.4812     0.4789 H       
  40 H40            5.7126    -2.6836    -1.6243 H       
  41 H41            5.6899    -3.4920    -3.9488 H       
  42 H42            1.4146    -3.4593    -3.9090 H       
  43 H43            1.4475    -2.6559    -1.5829 H       
  44 H44            1.4080    -4.1254    -5.8211 H       
  45 H45            2.2048    -4.9493    -8.1832 H       
  46 H46            4.8723    -4.9639    -8.1917 H       
  47 H47            5.5527     5.2602    -1.9797 H       
  48 H48            6.7931     7.1471    -0.8781 H       
  49 H49            8.2985     6.2131    -1.0513 H       
  50 H50            8.0997     3.8832    -1.7654 H       
  51 H51            7.9528     7.6938    -2.8935 H       
@<TRIPOS>BOND
   1    1    2 ar
   2    1    6 ar
   3    1   32 1
   4    2    3 ar
   5    2   33 1
   6    3    4 ar
   7    3   34 1
   8    4    5 ar
   9    4    7 1
  10    5    6 ar
  11    5   10 1
  12    6   35 1
  13    7    8 1
  14    7   15 1
  15    8    9 2
  16    9   10 1
  17    9   11 1
  18   10   13 2
  19   11   12 am
  20   11   27 2
  21   12   13 1
  22   12   14 1
  23   14   28 1
  24   14   36 1
  25   14   37 1
  26   15   16 1
  27   15   38 1
  28   15   39 1
  29   16   17 ar
  30   16   21 ar
  31   17   18 ar
  32   17   40 1
  33   18   19 ar
  34   18   41 1
  35   19   20 ar
  36   19   22 1
  37   20   21 ar
  38   20   42 1
  39   21   43 1
  40   22   23 1
  41   22   26 1
  42   23   24 2
  43   23   44 1
  44   24   25 1
  45   24   45 1
  46   25   26 2
  47   25   46 1
  48   28   29 1
  49   28   30 1
  50   28   47 1
  51   29   31 1
  52   29   48 1
  53   29   49 1
  54   30   50 1
  55   31   51 1

#	End of record

