#	Name: ASD03081319
#	Creating user name:	WinNT
#	Creation time:	15. 06. 2019 20:27

#	Modifying user name:	WinNT
#	Modification time:	15. 06. 2019 20:27

#	Program:	/corina/corina34_cracker 3.40 0067  02.08.2006

@<TRIPOS>MOLECULE
ASD03081319
  30   32    0    0    0
SMALL
NO_CHARGES


@<TRIPOS>ATOM
   1 C1            -0.0168     1.3845     0.0097 C.ar    
   2 C2             0.0021    -0.0041     0.0020 C.ar    
   3 C3             1.2057    -0.6841    -0.0132 C.ar    
   4 C4             2.3968     0.0126    -0.0204 C.ar    
   5 C5             2.3880     1.4087    -0.0128 C.ar    
   6 C6             1.1721     2.0936     0.0021 C.ar    
   7 O7            -1.2031     2.0476     0.0189 O.3     
   8 O8             4.9004     1.6264    -0.0348 O.3     
   9 C9             3.6612     2.1583    -0.0205 C.2     
  10 N10            3.7940     3.4653    -0.0152 N.2     
  11 N11            5.0445     3.7677    -0.0253 N.2     
  12 C12            5.7597     2.6657    -0.0376 C.2     
  13 C13            7.8742     1.3398    -0.0620 C.ar    
  14 C14            7.2347     2.5807    -0.0508 C.ar    
  15 C15            8.0148     3.7433    -0.0529 C.ar    
  16 C16            9.3920     3.6089    -0.0659 C.ar    
  17 C17            9.9487     2.3428    -0.0765 C.ar    
  18 N18            9.1887     1.2642    -0.0743 N.ar    
  19 C19           -1.2943    -0.7725     0.0108 C.3     
  20 H20            1.2137    -1.7641    -0.0190 H       
  21 H21            3.3353    -0.5217    -0.0315 H       
  22 H22            1.1588     3.1735     0.0077 H       
  23 H23           -1.5422     2.2347     0.9049 H       
  24 H24            7.2859     0.4341    -0.0561 H       
  25 H25            7.5536     4.7199    -0.0448 H       
  26 H26           10.0256     4.4835    -0.0682 H       
  27 H27           11.0233     2.2352    -0.0871 H       
  28 H28           -1.6171    -0.9522    -1.0147 H       
  29 H29           -1.1480    -1.7261     0.5181 H       
  30 H30           -2.0554    -0.1949     0.5354 H       
@<TRIPOS>BOND
   1    1    2 ar
   2    1    6 ar
   3    1    7 1
   4    2    3 ar
   5    2   19 1
   6    3    4 ar
   7    3   20 1
   8    4    5 ar
   9    4   21 1
  10    5    6 ar
  11    5    9 1
  12    6   22 1
  13    7   23 1
  14    8    9 1
  15    8   12 1
  16    9   10 2
  17   10   11 1
  18   11   12 2
  19   12   14 1
  20   13   14 ar
  21   13   18 ar
  22   13   24 1
  23   14   15 ar
  24   15   16 ar
  25   15   25 1
  26   16   17 ar
  27   16   26 1
  28   17   18 ar
  29   17   27 1
  30   19   28 1
  31   19   29 1
  32   19   30 1

#	End of record

