#	Name: ASD01911382
#	Creating user name:	WinNT
#	Creation time:	15. 06. 2019 19:57

#	Modifying user name:	WinNT
#	Modification time:	15. 06. 2019 19:57

#	Program:	/corina/corina34_cracker 3.40 0067  02.08.2006

@<TRIPOS>MOLECULE
ASD01911382
  44   47    0    0    0
SMALL
NO_CHARGES


@<TRIPOS>ATOM
   1 C1            -0.0173     1.4278     0.0099 C.2     
   2 C2             0.0021    -0.0041     0.0020 C.1     
   3 C3             0.0180    -1.1779    -0.0044 C.1     
   4 C4             0.0374    -2.6098    -0.0123 C.ar    
   5 N5            -1.1136    -3.2820    -0.0049 N.ar    
   6 C6            -1.1407    -4.5962    -0.0107 C.ar    
   7 C7             0.0510    -5.3267    -0.0415 C.ar    
   8 C8             1.2783    -4.6523    -0.0427 C.ar    
   9 C9             1.2660    -3.2832    -0.0334 C.ar    
  10 C10           -2.4540    -5.3346     0.0374 C.3     
  11 C11           -2.3541    -6.6333    -0.7584 C.3     
  12 N12           -1.1801    -7.4049    -0.3565 N.am    
  13 C13           -0.0070    -6.7984    -0.0925 C.2     
  14 O14            0.9951    -7.4591     0.1025 O.2     
  15 C15           -1.2810    -8.8616    -0.2385 C.3     
  16 C16           -0.2911    -9.5210    -1.2009 C.3     
  17 C17           -0.3964   -11.0424    -1.0776 C.3     
  18 C18           -0.0692   -11.4617     0.3570 C.3     
  19 C19           -1.0591   -10.8023     1.3194 C.3     
  20 C20           -0.9538    -9.2809     1.1961 C.3     
  21 C21            1.0861     2.2333     0.0037 C.2     
  22 C22            0.8064     3.5798     0.0128 C.2     
  23 C23           -0.4953     3.8921     0.0262 C.2     
  24 S24           -1.4656     2.4259     0.0214 S.3     
  25 H25            2.2102    -5.1979    -0.0553 H       
  26 H26            2.1928    -2.7287    -0.0339 H       
  27 H27           -2.7022    -5.5637     1.0737 H       
  28 H28           -3.2369    -4.7081    -0.3900 H       
  29 H29           -3.2503    -7.2290    -0.5853 H       
  30 H30           -2.2813    -6.3978    -1.8202 H       
  31 H31           -2.2943    -9.1770    -0.4870 H       
  32 H32           -0.5242    -9.2223    -2.2229 H       
  33 H33            0.7223    -9.2057    -0.9523 H       
  34 H34           -1.4097   -11.3578    -1.3261 H       
  35 H35            0.3088   -11.5122    -1.7632 H       
  36 H36           -0.1442   -12.5456     0.4449 H       
  37 H37            0.9441   -11.1463     0.6056 H       
  38 H38           -2.0724   -11.1177     1.0708 H       
  39 H39           -0.8260   -11.1010     2.3414 H       
  40 H40            0.0595    -8.9655     1.4447 H       
  41 H41           -1.6590    -8.8112     1.8817 H       
  42 H42            2.0938     1.8451    -0.0074 H       
  43 H43            1.5817     4.3317     0.0097 H       
  44 H44           -0.8912     4.8969     0.0353 H       
@<TRIPOS>BOND
   1    1    2 1
   2    1   21 2
   3    1   24 1
   4    2    3 3
   5    3    4 1
   6    4    5 ar
   7    4    9 ar
   8    5    6 ar
   9    6    7 ar
  10    6   10 1
  11    7    8 ar
  12    7   13 1
  13    8    9 ar
  14    8   25 1
  15    9   26 1
  16   10   11 1
  17   10   27 1
  18   10   28 1
  19   11   12 1
  20   11   29 1
  21   11   30 1
  22   12   13 am
  23   12   15 1
  24   13   14 2
  25   15   16 1
  26   15   20 1
  27   15   31 1
  28   16   17 1
  29   16   32 1
  30   16   33 1
  31   17   18 1
  32   17   34 1
  33   17   35 1
  34   18   19 1
  35   18   36 1
  36   18   37 1
  37   19   20 1
  38   19   38 1
  39   19   39 1
  40   20   40 1
  41   20   41 1
  42   21   22 1
  43   21   42 1
  44   22   23 2
  45   22   43 1
  46   23   24 1
  47   23   44 1

#	End of record

