#	Name: ASD02560030
#	Creating user name:	WinNT
#	Creation time:	15. 06. 2019 20:24

#	Modifying user name:	WinNT
#	Modification time:	15. 06. 2019 20:24

#	Program:	/corina/corina34_cracker 3.40 0067  02.08.2006

@<TRIPOS>MOLECULE
ASD02560030
  28   30    0    0    0
SMALL
NO_CHARGES


@<TRIPOS>ATOM
   1 C1            -0.0167     1.3784     0.0096 C.ar    
   2 C2             0.0021    -0.0041     0.0020 C.ar    
   3 C3             1.1993    -0.6958    -0.0131 C.ar    
   4 C4             2.3946     0.0052    -0.0208 C.ar    
   5 C5             2.3574     1.4020    -0.0129 C.ar    
   6 C6             1.1769     2.0884     0.0020 C.ar    
   7 N7             3.6321    -0.6279    -0.0355 N.am    
   8 C8             4.8261    -0.0475    -0.0429 C.2     
   9 N9             5.1037     1.2332    -0.0381 N.am    
  10 S10            3.9387     2.2000    -0.0231 S.o2    
  11 S11            6.1723    -1.1051    -0.0605 S.2     
  12 C12            4.0426     3.2307    -1.4485 C.ar    
  13 C13            4.7435     4.4208    -1.3912 C.ar    
  14 C14            4.8250     5.2294    -2.5093 C.ar    
  15 C15            4.2061     4.8477    -3.6850 C.ar    
  16 C16            3.5060     3.6571    -3.7426 C.ar    
  17 C17            3.4282     2.8464    -2.6256 C.ar    
  18 O18            4.0415     3.0184     1.1340 O.2     
  19 H19           -0.9590     1.9060     0.0170 H       
  20 H20           -0.9296    -0.5503     0.0083 H       
  21 H21            1.2028    -1.7758    -0.0186 H       
  22 H22            1.1716     3.1683     0.0075 H       
  23 H23            3.6222    -1.5978    -0.0407 H       
  24 H24            5.2270     4.7191    -0.4726 H       
  25 H25            5.3719     6.1596    -2.4644 H       
  26 H26            4.2692     5.4798    -4.5584 H       
  27 H27            3.0222     3.3590    -4.6610 H       
  28 H28            2.8812     1.9162    -2.6706 H       
@<TRIPOS>BOND
   1    1    2 ar
   2    1    6 ar
   3    1   19 1
   4    2    3 ar
   5    2   20 1
   6    3    4 ar
   7    3   21 1
   8    4    5 ar
   9    4    7 1
  10    5    6 ar
  11    5   10 1
  12    6   22 1
  13    7    8 am
  14    7   23 1
  15    8    9 1
  16    8   11 2
  17    9   10 2
  18   10   12 1
  19   10   18 2
  20   12   13 ar
  21   12   17 ar
  22   13   14 ar
  23   13   24 1
  24   14   15 ar
  25   14   25 1
  26   15   16 ar
  27   15   26 1
  28   16   17 ar
  29   16   27 1
  30   17   28 1

#	End of record

