#	Name: ASD04230075
#	Creating user name:	WinNT
#	Creation time:	15. 06. 2019 20:48

#	Modifying user name:	WinNT
#	Modification time:	15. 06. 2019 20:48

#	Program:	/corina/corina34_cracker 3.40 0067  02.08.2006

@<TRIPOS>MOLECULE
ASD04230075
  49   52    0    0    0
SMALL
NO_CHARGES


@<TRIPOS>ATOM
   1 C1             1.5361     4.6855     1.7216 C.ar    
   2 C2             2.5442     5.3833     2.3710 C.ar    
   3 C3             3.8008     4.8582     2.4692 C.ar    
   4 C4             4.0827     3.6074     1.9009 C.ar    
   5 C5             3.0565     2.8814     1.2697 C.ar    
   6 C6             1.7832     3.4390     1.1739 C.ar    
   7 C7             5.3936     3.0672     1.9622 C.2     
   8 C8             5.6630     1.9280     1.2153 C.2     
   9 C9             4.5672     1.3875     0.3902 C.2     
  10 O10            3.2980     1.6420     0.7794 O.3     
  11 C11            6.9880     1.2867     1.2457 C.2     
  12 N12            7.2189     0.1816     0.5095 N.am    
  13 O13            7.8743     1.7542     1.9353 O.2     
  14 C14            8.5060    -0.3625     0.4496 C.ar    
  15 C15            8.6754    -1.7391     0.3669 C.ar    
  16 C16            9.9458    -2.2804     0.3081 C.ar    
  17 C17           11.0533    -1.4567     0.3311 C.ar    
  18 C18           10.8928    -0.0743     0.4135 C.ar    
  19 C19            9.6135     0.4723     0.4670 C.ar    
  20 C20           12.0821     0.8124     0.4383 C.ar    
  21 O21            4.7980     0.7336    -0.6096 O.2     
  22 O22            0.7868     2.7605     0.5449 O.3     
  23 C23           13.3625     0.2649     0.3794 C.ar    
  24 C24           14.4661     1.0916     0.4022 C.ar    
  25 C25           14.3027     2.4679     0.4838 C.ar    
  26 C26           13.0285     3.0160     0.5431 C.ar    
  27 C27           11.9210     2.1947     0.5149 C.ar    
  28 O28           15.3918     3.2799     0.5061 O.3     
  29 C29           15.1511     4.6859     0.5911 C.3     
  30 C30           16.4868     5.4321     0.6042 C.3     
  31 H31            0.5488     5.1169     1.6467 H       
  32 H32            2.3333     6.3506     2.8023 H       
  33 H33            4.5768     5.4056     2.9836 H       
  34 H34            6.1580     3.5279     2.5704 H       
  35 H35            6.4924    -0.2364     0.0212 H       
  36 H36            7.8122    -2.3879     0.3490 H       
  37 H37           10.0724    -3.3511     0.2442 H       
  38 H38           12.0444    -1.8834     0.2856 H       
  39 H39            9.4841     1.5426     0.5306 H       
  40 H40            0.2745     2.1840     1.1281 H       
  41 H41           13.4903    -0.8056     0.3163 H       
  42 H42           15.4585     0.6680     0.3569 H       
  43 H43           12.9044     4.0870     0.6069 H       
  44 H44           10.9301     2.6216     0.5607 H       
  45 H45           14.5642     5.0067    -0.2696 H       
  46 H46           14.6029     4.9060     1.5071 H       
  47 H47           17.0737     5.1113     1.4649 H       
  48 H48           17.0350     5.2120    -0.3118 H       
  49 H49           16.3032     6.5045     0.6691 H       
@<TRIPOS>BOND
   1    1    2 ar
   2    1    6 ar
   3    1   31 1
   4    2    3 ar
   5    2   32 1
   6    3    4 ar
   7    3   33 1
   8    4    5 ar
   9    4    7 1
  10    5    6 ar
  11    5   10 1
  12    6   22 1
  13    7    8 2
  14    7   34 1
  15    8    9 1
  16    8   11 1
  17    9   10 1
  18    9   21 2
  19   11   12 am
  20   11   13 2
  21   12   14 1
  22   12   35 1
  23   14   15 ar
  24   14   19 ar
  25   15   16 ar
  26   15   36 1
  27   16   17 ar
  28   16   37 1
  29   17   18 ar
  30   17   38 1
  31   18   19 ar
  32   18   20 1
  33   19   39 1
  34   20   23 ar
  35   20   27 ar
  36   22   40 1
  37   23   24 ar
  38   23   41 1
  39   24   25 ar
  40   24   42 1
  41   25   26 ar
  42   25   28 1
  43   26   27 ar
  44   26   43 1
  45   27   44 1
  46   28   29 1
  47   29   30 1
  48   29   45 1
  49   29   46 1
  50   30   47 1
  51   30   48 1
  52   30   49 1

#	End of record

