#	Name: ASD03731708
#	Creating user name:	WinNT
#	Creation time:	15. 06. 2019 20:46

#	Modifying user name:	WinNT
#	Modification time:	15. 06. 2019 20:46

#	Program:	/corina/corina34_cracker 3.40 0067  02.08.2006

@<TRIPOS>MOLECULE
ASD03731708
  37   38    0    0    0
SMALL
NO_CHARGES


@<TRIPOS>ATOM
   1 C1             0.7585     1.4152    -0.4022 C.2     
   2 C2             0.5739    -0.0457    -0.3017 C.ar    
   3 C3             1.5328    -0.9113    -0.8347 C.ar    
   4 C4             1.3572    -2.2735    -0.7385 C.ar    
   5 C5             0.2278    -2.7882    -0.1121 C.ar    
   6 C6            -0.7285    -1.9303     0.4194 C.ar    
   7 C7            -0.5574    -0.5669     0.3318 C.ar    
   8 O8             1.7458     1.8670    -0.9493 O.2     
   9 N9            -0.1702     2.2484     0.1075 N.am    
  10 O10            0.0581    -4.1312    -0.0197 O.3     
  11 C11            0.5848    -4.7684     1.0597 C.ar    
  12 C12            1.1761    -4.0348     2.0779 C.ar    
  13 C13            1.7108    -4.6821     3.1746 C.ar    
  14 C14            1.6569    -6.0657     3.2578 C.ar    
  15 C15            1.0660    -6.7993     2.2396 C.ar    
  16 C16            0.5258    -6.1517     1.1457 C.ar    
  17 O17            2.1836    -6.7029     4.3373 O.3     
  18 C18            2.0930    -8.1289     4.3569 C.3     
  19 F19            2.7629    -8.6540     3.2466 F       
  20 F20            2.6796    -8.6173     5.5294 F       
  21 F21            0.7480    -8.5113     4.3140 F       
  22 S22            0.0370     3.8876    -0.0052 S.o2    
  23 O23           -1.1017     4.4305     0.6489 O.2     
  24 O24            1.3469     4.1107     0.4983 O.2     
  25 C25           -0.0278     4.2306    -1.7853 C.3     
  26 H26            2.4102    -0.5122    -1.3217 H       
  27 H27            2.0977    -2.9431    -1.1505 H       
  28 H28           -1.6047    -2.3339     0.9049 H       
  29 H29           -1.2987     0.0989     0.7486 H       
  30 H30           -0.9598     1.8880     0.5405 H       
  31 H31            1.2188    -2.9576     2.0128 H       
  32 H32            2.1711    -4.1110     3.9673 H       
  33 H33            1.0247    -7.8765     2.3041 H       
  34 H34            0.0619    -6.7227     0.3550 H       
  35 H35           -0.9927     3.9141    -2.1815 H       
  36 H36            0.1015     5.2996    -1.9543 H       
  37 H37            0.7690     3.6841    -2.2899 H       
@<TRIPOS>BOND
   1    1    2 1
   2    1    8 2
   3    1    9 am
   4    2    3 ar
   5    2    7 ar
   6    3    4 ar
   7    3   26 1
   8    4    5 ar
   9    4   27 1
  10    5    6 ar
  11    5   10 1
  12    6    7 ar
  13    6   28 1
  14    7   29 1
  15    9   22 am
  16    9   30 1
  17   10   11 1
  18   11   12 ar
  19   11   16 ar
  20   12   13 ar
  21   12   31 1
  22   13   14 ar
  23   13   32 1
  24   14   15 ar
  25   14   17 1
  26   15   16 ar
  27   15   33 1
  28   16   34 1
  29   17   18 1
  30   18   19 1
  31   18   20 1
  32   18   21 1
  33   22   23 2
  34   22   24 2
  35   22   25 1
  36   25   35 1
  37   25   36 1
  38   25   37 1

#	End of record

