#	Name: ASD03430564
#	Creating user name:	WinNT
#	Creation time:	15. 06. 2019 20:41

#	Modifying user name:	WinNT
#	Modification time:	15. 06. 2019 20:41

#	Program:	/corina/corina34_cracker 3.40 0067  02.08.2006

@<TRIPOS>MOLECULE
ASD03430564
  37   40    0    0    0
SMALL
NO_CHARGES


@<TRIPOS>ATOM
   1 N1            -0.0161     1.3395     0.0094 N.am    
   2 C2             0.0021    -0.0041     0.0020 C.2     
   3 C3             1.4548    -0.4298    -0.0141 C.3     
   4 C4             2.2196     0.8738    -0.0144 C.ar    
   5 C5             3.5648     1.1709    -0.0265 C.ar    
   6 C6             3.9798     2.4922    -0.0243 C.ar    
   7 C7             3.0413     3.5077    -0.0099 C.ar    
   8 C8             1.6939     3.2124     0.0027 C.ar    
   9 C9             1.2680     1.8853     0.0001 C.ar    
  10 O10           -0.9637    -0.7378     0.0079 O.2     
  11 C11           -1.2434     2.1395     0.0197 C.3     
  12 O12            2.6810    -3.4583     4.5850 O.3     
  13 C13            2.8388    -2.7455     5.8165 C.3     
  14 C14            1.6748    -1.7543     5.9505 C.3     
  15 O15            1.7183    -0.8588     4.8342 O.3     
  16 C16            1.9016    -1.4195     3.6065 C.ar    
  17 C17            2.3844    -2.7172     3.4826 C.ar    
  18 C18            1.6010    -0.6825     2.4713 C.ar    
  19 C19            1.7831    -1.2342     1.2172 C.ar    
  20 C20            2.2670    -2.5274     1.0911 C.ar    
  21 C21            2.5675    -3.2686     2.2237 C.ar    
  22 O22            2.4465    -3.0689    -0.1432 O.3     
  23 Br23           4.8424    -0.2230    -0.0456 Br      
  24 H24            1.6751    -1.0020    -0.9153 H       
  25 H25            5.0335     2.7287    -0.0334 H       
  26 H26            3.3651     4.5380    -0.0081 H       
  27 H27            0.9673     4.0113     0.0146 H       
  28 H28           -2.1090     1.4770     0.0208 H       
  29 H29           -1.2626     2.7638     0.9130 H       
  30 H30           -1.2717     2.7728    -0.8669 H       
  31 H31            2.8230    -3.4461     6.6514 H       
  32 H32            3.7844    -2.2033     5.8088 H       
  33 H33            0.7289    -2.2959     5.9507 H       
  34 H34            1.7767    -1.1908     6.8780 H       
  35 H35            1.2242     0.3251     2.5672 H       
  36 H36            2.9447    -4.2758     2.1253 H       
  37 H37            3.3251    -2.9146    -0.5165 H       
@<TRIPOS>BOND
   1    1    2 am
   2    1    9 1
   3    1   11 1
   4    2    3 1
   5    2   10 2
   6    3    4 1
   7    3   19 1
   8    3   24 1
   9    4    5 ar
  10    4    9 ar
  11    5    6 ar
  12    5   23 1
  13    6    7 ar
  14    6   25 1
  15    7    8 ar
  16    7   26 1
  17    8    9 ar
  18    8   27 1
  19   11   28 1
  20   11   29 1
  21   11   30 1
  22   12   13 1
  23   12   17 1
  24   13   14 1
  25   13   31 1
  26   13   32 1
  27   14   15 1
  28   14   33 1
  29   14   34 1
  30   15   16 1
  31   16   17 ar
  32   16   18 ar
  33   17   21 ar
  34   18   19 ar
  35   18   35 1
  36   19   20 ar
  37   20   21 ar
  38   20   22 1
  39   21   36 1
  40   22   37 1

#	End of record

