#	Name: ASD05313028
#	Creating user name:	WinNT
#	Creation time:	15. 06. 2019 20:58

#	Modifying user name:	WinNT
#	Modification time:	15. 06. 2019 20:58

#	Program:	/corina/corina34_cracker 3.40 0067  02.08.2006

@<TRIPOS>MOLECULE
ASD05313028
  42   45    0    0    0
SMALL
NO_CHARGES


@<TRIPOS>ATOM
   1 C1            -0.0893     0.9023     1.1578 C.2     
   2 C2             0.1447    -0.5513     0.8227 C.3     
   3 N3             0.9103     1.8257     1.2539 N.pl3   
   4 N4             1.5475    -0.6698     0.3815 N.am    
   5 C5             2.5787     0.0472     1.1465 C.3     
   6 C6             2.3308     1.5567     1.0392 C.3     
   7 N7            -0.9878     2.7531     1.6558 N.2     
   8 N8            -1.2096     1.5081     1.4070 N.2     
   9 C9             0.3041     3.0010     1.5764 C.2     
  10 C10            0.9675     4.3038     1.7979 C.ar    
  11 C11            0.6307     5.0828     2.9086 C.ar    
  12 C12            1.2547     6.2988     3.1098 C.ar    
  13 C13            2.2117     6.7452     2.2131 C.ar    
  14 C14            2.5482     5.9761     1.1104 C.ar    
  15 C15            1.9361     4.7577     0.9022 C.ar    
  16 F16            2.8192     7.9351     2.4141 F       
  17 F17           -0.3029     4.6478     3.7828 F       
  18 C18            1.8749    -1.4150    -0.6927 C.2     
  19 O19            3.0198    -1.4224    -1.1011 O.2     
  20 C20            0.8421    -2.2229    -1.3741 C.ar    
  21 C21            0.7587    -2.2238    -2.7689 C.ar    
  22 C22           -0.2093    -2.9815    -3.3985 C.ar    
  23 C23           -1.0944    -3.7371    -2.6512 C.ar    
  24 C24           -1.0171    -3.7398    -1.2696 C.ar    
  25 C25           -0.0511    -2.9932    -0.6276 C.ar    
  26 C26           -0.3017    -2.9845    -4.9027 C.3     
  27 F27           -1.3505    -3.8188    -5.3038 F       
  28 F28           -0.5406    -1.6833    -5.3578 F       
  29 F29            0.9004    -3.4540    -5.4428 F       
  30 Cl30           1.8685    -1.2748    -3.7079 Cl      
  31 H31           -0.0209    -1.1681     1.7060 H       
  32 H32           -0.5252    -0.8608     0.0205 H       
  33 H33            2.5323    -0.2557     2.1926 H       
  34 H34            3.5627    -0.1897     0.7418 H       
  35 H35            2.6216     1.9040     0.0478 H       
  36 H36            2.9185     2.0771     1.7954 H       
  37 H37            0.9957     6.9025     3.9671 H       
  38 H38            3.2948     6.3296     0.4147 H       
  39 H39            2.2032     4.1577     0.0448 H       
  40 H40           -1.8498    -4.3276    -3.1483 H       
  41 H41           -1.7120    -4.3318    -0.6924 H       
  42 H42            0.0109    -3.0007     0.4506 H       
@<TRIPOS>BOND
   1    1    2 1
   2    1    3 1
   3    1    8 2
   4    2    4 1
   5    2   31 1
   6    2   32 1
   7    3    6 1
   8    3    9 1
   9    4    5 1
  10    4   18 am
  11    5    6 1
  12    5   33 1
  13    5   34 1
  14    6   35 1
  15    6   36 1
  16    7    8 1
  17    7    9 2
  18    9   10 1
  19   10   11 ar
  20   10   15 ar
  21   11   12 ar
  22   11   17 1
  23   12   13 ar
  24   12   37 1
  25   13   14 ar
  26   13   16 1
  27   14   15 ar
  28   14   38 1
  29   15   39 1
  30   18   19 2
  31   18   20 1
  32   20   21 ar
  33   20   25 ar
  34   21   22 ar
  35   21   30 1
  36   22   23 ar
  37   22   26 1
  38   23   24 ar
  39   23   40 1
  40   24   25 ar
  41   24   41 1
  42   25   42 1
  43   26   27 1
  44   26   28 1
  45   26   29 1

#	End of record

