#	Name: ASD01200286
#	Creating user name:	WinNT
#	Creation time:	15. 06. 2019 19:08

#	Modifying user name:	WinNT
#	Modification time:	15. 06. 2019 19:08

#	Program:	/corina/corina34_cracker 3.40 0067  02.08.2006

@<TRIPOS>MOLECULE
ASD01200286
  28   30    0    0    0
SMALL
NO_CHARGES


@<TRIPOS>ATOM
   1 C1            -0.0167     1.3824     0.0096 C.ar    
   2 C2             0.0021    -0.0041     0.0020 C.ar    
   3 C3             1.2047    -0.6762    -0.0130 C.ar    
   4 C4             2.4029     0.0324    -0.0202 C.ar    
   5 C5             2.3983     1.4307    -0.0126 C.ar    
   6 C6             1.1550     2.0970     0.0023 C.ar    
   7 S7             4.0763    -0.5189    -0.0385 S.3     
   8 C8             4.6398     1.1463    -0.0347 C.2     
   9 N9             3.6383     1.9590    -0.0212 N.2     
  10 S10            6.3324     1.6357    -0.0470 S.3     
  11 C11            6.1393     3.4354    -0.0359 C.3     
  12 C12            7.4984     4.0865    -0.0444 C.2     
  13 N13            7.6019     5.4302    -0.0383 N.am    
  14 O14            8.4990     3.4012    -0.0569 O.2     
  15 C15            8.8554     6.0308    -0.0462 C.2     
  16 S16            9.1332     7.7177    -0.0398 S.3     
  17 C17           10.8731     7.4420    -0.0555 C.2     
  18 C18           11.0831     6.1242    -0.0639 C.2     
  19 N19            9.9841     5.3933    -0.0538 N.2     
  20 H20           -0.9620     1.9047     0.0169 H       
  21 H21           -0.9257    -0.5569     0.0082 H       
  22 H22            1.2178    -1.7561    -0.0190 H       
  23 H23            1.1250     3.1766     0.0084 H       
  24 H24            5.5818     3.7465    -0.9194 H       
  25 H25            5.5975     3.7371     0.8605 H       
  26 H26            6.8016     5.9783    -0.0284 H       
  27 H27           11.6365     8.2060    -0.0578 H       
  28 H28           12.0723     5.6908    -0.0742 H       
@<TRIPOS>BOND
   1    1    2 ar
   2    1    6 ar
   3    1   20 1
   4    2    3 ar
   5    2   21 1
   6    3    4 ar
   7    3   22 1
   8    4    5 ar
   9    4    7 1
  10    5    6 ar
  11    5    9 1
  12    6   23 1
  13    7    8 1
  14    8    9 2
  15    8   10 1
  16   10   11 1
  17   11   12 1
  18   11   24 1
  19   11   25 1
  20   12   13 am
  21   12   14 2
  22   13   15 1
  23   13   26 1
  24   15   16 1
  25   15   19 2
  26   16   17 1
  27   17   18 2
  28   17   27 1
  29   18   19 1
  30   18   28 1

#	End of record

