#	Name: ASD01190218
#	Creating user name:	WinNT
#	Creation time:	15. 06. 2019 19:08

#	Modifying user name:	WinNT
#	Modification time:	15. 06. 2019 19:08

#	Program:	/corina/corina34_cracker 3.40 0067  02.08.2006

@<TRIPOS>MOLECULE
ASD01190218
  75   81    0    0    0
SMALL
NO_CHARGES


@<TRIPOS>ATOM
   1 C1             0.0381     1.4441     0.0720 C.3     
   2 C2            -0.1630     2.1336     1.4229 C.3     
   3 N3             2.8714     3.4483    -1.1607 N.pl3   
   4 C4             1.9176     3.1333    -0.2290 C.2     
   5 C5             1.1849     2.0944    -0.6581 C.2     
   6 C6             1.7112     1.7118    -1.9715 C.ar    
   7 C7             1.3739     0.7245    -2.9000 C.ar    
   8 C8             2.0751     0.6205    -4.0668 C.ar    
   9 C9             3.1274     1.4939    -4.3393 C.ar    
  10 C10            3.4761     2.4783    -3.4315 C.ar    
  11 C11            2.7714     2.5969    -2.2384 C.ar    
  12 N12            3.8357     1.3738    -5.5386 N.3     
  13 C13            5.2616     1.6949    -5.3445 C.3     
  14 C14            6.0741     0.4693    -5.8126 C.3     
  15 C15            5.0934    -0.2542    -6.7726 C.3     
  16 C16            3.7316     0.0021    -6.0804 C.3     
  17 C17            3.8478     4.5328    -1.0324 C.3     
  18 C18            3.3243     5.7647    -1.7248 C.ar    
  19 C19            2.5612     6.6793    -1.0226 C.ar    
  20 C20            2.0801     7.8093    -1.6551 C.ar    
  21 C21            2.3631     8.0260    -2.9958 C.ar    
  22 C22            3.1289     7.1068    -3.6981 C.ar    
  23 C23            3.6124     5.9812    -3.0596 C.ar    
  24 O24            1.8906     9.1367    -3.6203 O.3     
  25 C25            2.2212     9.2945    -5.0016 C.3     
  26 N26            0.9482    -4.0565     0.7958 N.pl3   
  27 N27           -0.2605    -4.5438     0.2878 N.2     
  28 C28           -1.0128    -3.5547    -0.1038 C.2     
  29 C29           -0.2857    -2.3142     0.1464 C.ar    
  30 C30           -0.5725    -0.9602    -0.0600 C.ar    
  31 C31            0.3459    -0.0144     0.2933 C.ar    
  32 C32            1.5622    -0.3836     0.8547 C.ar    
  33 C33            1.8650    -1.6990     1.0655 C.ar    
  34 C34            0.9477    -2.6861     0.7155 C.ar    
  35 C35            1.9894    -4.8405     1.3094 C.ar    
  36 C36            1.7027    -6.0042     2.0108 C.ar    
  37 C37            2.7305    -6.7756     2.5164 C.ar    
  38 C38            4.0465    -6.3894     2.3243 C.ar    
  39 C39            4.3346    -5.2292     1.6251 C.ar    
  40 C40            3.3099    -4.4580     1.1130 C.ar    
  41 F41            5.0506    -7.1452     2.8200 F       
  42 F42           -0.4487     3.4876     1.2175 F       
  43 F43           -1.2276     1.5300     2.1007 F       
  44 F44            1.0035     2.0137     2.1859 F       
  45 O45           -1.1534     1.5666    -0.7073 O.3     
  46 H46            1.7764     3.6454     0.7114 H       
  47 H47            0.5602     0.0445    -2.6952 H       
  48 H48            1.8131    -0.1438    -4.7836 H       
  49 H49            4.2924     3.1514    -3.6483 H       
  50 H50            5.5297     2.5672    -5.9407 H       
  51 H51            5.4577     1.8892    -4.2901 H       
  52 H52            6.9727     0.7827    -6.3439 H       
  53 H53            6.3281    -0.1703    -4.9673 H       
  54 H54            5.1171     0.1943    -7.7658 H       
  55 H55            5.3115    -1.3210    -6.8224 H       
  56 H56            3.5754    -0.7138    -5.2734 H       
  57 H57            2.9199    -0.0590    -6.8054 H       
  58 H58            4.0118     4.7511     0.0229 H       
  59 H59            4.7891     4.2304    -1.4913 H       
  60 H60            2.3409     6.5100     0.0210 H       
  61 H61            1.4838     8.5233    -1.1063 H       
  62 H62            3.3506     7.2732    -4.7419 H       
  63 H63            4.2126     5.2677    -3.6046 H       
  64 H64            1.7831    10.2194    -5.3766 H       
  65 H65            3.3047     9.3342    -5.1135 H       
  66 H66            1.8281     8.4504    -5.5681 H       
  67 H67           -1.9987    -3.6380    -0.5369 H       
  68 H68           -1.5153    -0.6652    -0.4966 H       
  69 H69            2.2770     0.3787     1.1274 H       
  70 H70            2.8141    -1.9726     1.5023 H       
  71 H71            0.6765    -6.3056     2.1611 H       
  72 H72            2.5079    -7.6806     3.0622 H       
  73 H73            5.3615    -4.9296     1.4767 H       
  74 H74            3.5351    -3.5558     0.5636 H       
  75 H75           -1.0978     1.1513    -1.5788 H       
@<TRIPOS>BOND
   1    1    2 1
   2    1    5 1
   3    1   31 1
   4    1   45 1
   5    2   42 1
   6    2   43 1
   7    2   44 1
   8    3    4 1
   9    3   11 1
  10    3   17 1
  11    4    5 2
  12    4   46 1
  13    5    6 1
  14    6    7 ar
  15    6   11 ar
  16    7    8 ar
  17    7   47 1
  18    8    9 ar
  19    8   48 1
  20    9   10 ar
  21    9   12 1
  22   10   11 ar
  23   10   49 1
  24   12   13 1
  25   12   16 1
  26   13   14 1
  27   13   50 1
  28   13   51 1
  29   14   15 1
  30   14   52 1
  31   14   53 1
  32   15   16 1
  33   15   54 1
  34   15   55 1
  35   16   56 1
  36   16   57 1
  37   17   18 1
  38   17   58 1
  39   17   59 1
  40   18   19 ar
  41   18   23 ar
  42   19   20 ar
  43   19   60 1
  44   20   21 ar
  45   20   61 1
  46   21   22 ar
  47   21   24 1
  48   22   23 ar
  49   22   62 1
  50   23   63 1
  51   24   25 1
  52   25   64 1
  53   25   65 1
  54   25   66 1
  55   26   27 1
  56   26   34 1
  57   26   35 1
  58   27   28 2
  59   28   29 1
  60   28   67 1
  61   29   30 ar
  62   29   34 ar
  63   30   31 ar
  64   30   68 1
  65   31   32 ar
  66   32   33 ar
  67   32   69 1
  68   33   34 ar
  69   33   70 1
  70   35   36 ar
  71   35   40 ar
  72   36   37 ar
  73   36   71 1
  74   37   38 ar
  75   37   72 1
  76   38   39 ar
  77   38   41 1
  78   39   40 ar
  79   39   73 1
  80   40   74 1
  81   45   75 1

#	End of record

