#	Name: ASD07931705
#	Creating user name:	WinNT
#	Creation time:	15. 06. 2019 21:13

#	Modifying user name:	WinNT
#	Modification time:	15. 06. 2019 21:13

#	Program:	/corina/corina34_cracker 3.40 0067  02.08.2006

@<TRIPOS>MOLECULE
ASD07931705
  54   58    0    0    0
SMALL
NO_CHARGES


@<TRIPOS>ATOM
   1 C1             0.1615     3.9176    -0.5686 C.2     
   2 C2            -0.3210     2.6647    -0.3060 C.2     
   3 C3             0.6301     1.5827    -0.0404 C.2     
   4 N4             1.9484     1.8458    -0.0590 N.am    
   5 C5             2.4093     3.1147    -0.3279 C.2     
   6 C6             1.5448     4.1357    -0.5776 C.2     
   7 C7             2.9291     0.7853     0.2092 C.3     
   8 C8             4.1044     0.9671    -0.7628 C.3     
   9 N9             4.6953     2.2939    -0.5374 N.am    
  10 C10            3.8700     3.3500    -0.3419 C.2     
  11 C11            6.1496     2.4707    -0.5244 C.3     
  12 O12            0.2303     0.4552     0.1956 O.2     
  13 N13           -1.6973     2.4214    -0.2911 N.pl3   
  14 C14           -2.5530     2.5123    -1.3589 C.2     
  15 C15           -2.4396     2.0443     0.7831 C.2     
  16 N16           -3.6819     1.9151     0.4048 N.2     
  17 C17           -3.7800     2.1960    -0.9033 C.2     
  18 C18           -5.0450     2.1632    -1.7217 C.3     
  19 O19            4.3201     4.4680    -0.1817 O.2     
  20 C20            6.8659     1.6056     0.5260 C.3     
  21 C21            7.9584     1.3676    -0.5298 C.3     
  22 C22            6.8807     1.6403    -1.5924 C.3     
  23 O23            7.3194     2.3435     1.6626 O.3     
  24 C24            7.5708     1.6374     2.7965 C.ar    
  25 C25            7.8902     2.3015     3.9716 C.ar    
  26 C26            8.1449     1.5821     5.1233 C.ar    
  27 C27            8.0815     0.2002     5.1050 C.ar    
  28 C28            7.7630    -0.4642     3.9336 C.ar    
  29 C29            7.5025     0.2518     2.7814 C.ar    
  30 Cl30           8.4025    -0.7016     6.5533 Cl      
  31 C31            7.9599     3.8068     3.9919 C.3     
  32 F32            8.2970     4.2406     5.2785 F       
  33 F33            8.9315     4.2410     3.0838 F       
  34 F34            6.7158     4.3361     3.6323 F       
  35 H35           -0.5190     4.7312    -0.7717 H       
  36 H36            1.9292     5.1234    -0.7851 H       
  37 H37            3.2851     0.8642     1.2364 H       
  38 H38            2.4689    -0.1902     0.0522 H       
  39 H39            4.8535     0.1967    -0.5797 H       
  40 H40            3.7450     0.8959    -1.7893 H       
  41 H41            6.4483     3.5188    -0.5041 H       
  42 H42           -2.2928     2.7852    -2.3709 H       
  43 H43           -2.0642     1.8790     1.7822 H       
  44 H44           -5.5214     3.1432    -1.6936 H       
  45 H45           -4.8039     1.9058    -2.7531 H       
  46 H46           -5.7246     1.4169    -1.3103 H       
  47 H47            6.3168     0.7039     0.7971 H       
  48 H48            8.7527     2.1138    -0.5121 H       
  49 H49            8.3367     0.3454    -0.5440 H       
  50 H50            6.3356     0.7480    -1.9004 H       
  51 H51            7.2385     2.2311    -2.4356 H       
  52 H52            8.3940     2.0988     6.0384 H       
  53 H53            7.7143    -1.5430     3.9211 H       
  54 H54            7.2536    -0.2671     1.8675 H       
@<TRIPOS>BOND
   1    1    2 2
   2    1    6 1
   3    1   35 1
   4    2    3 1
   5    2   13 1
   6    3    4 am
   7    3   12 2
   8    4    5 1
   9    4    7 1
  10    5    6 2
  11    5   10 1
  12    6   36 1
  13    7    8 1
  14    7   37 1
  15    7   38 1
  16    8    9 1
  17    8   39 1
  18    8   40 1
  19    9   10 am
  20    9   11 1
  21   10   19 2
  22   11   20 1
  23   11   22 1
  24   11   41 1
  25   13   14 1
  26   13   15 1
  27   14   17 2
  28   14   42 1
  29   15   16 2
  30   15   43 1
  31   16   17 1
  32   17   18 1
  33   18   44 1
  34   18   45 1
  35   18   46 1
  36   20   21 1
  37   20   23 1
  38   20   47 1
  39   21   22 1
  40   21   48 1
  41   21   49 1
  42   22   50 1
  43   22   51 1
  44   23   24 1
  45   24   25 ar
  46   24   29 ar
  47   25   26 ar
  48   25   31 1
  49   26   27 ar
  50   26   52 1
  51   27   28 ar
  52   27   30 1
  53   28   29 ar
  54   28   53 1
  55   29   54 1
  56   31   32 1
  57   31   33 1
  58   31   34 1

#	End of record

