#	Name: ASD04910462
#	Creating user name:	WinNT
#	Creation time:	15. 06. 2019 20:55

#	Modifying user name:	WinNT
#	Modification time:	15. 06. 2019 20:55

#	Program:	/corina/corina34_cracker 3.40 0067  02.08.2006

@<TRIPOS>MOLECULE
ASD04910462
  68   70    0    0    0
SMALL
NO_CHARGES


@<TRIPOS>ATOM
   1 C1             1.7058     1.3907    -1.1746 C.2     
   2 C2             1.4763    -0.0320    -0.8620 C.ar    
   3 C3             2.4315    -1.0002    -1.2083 C.ar    
   4 C4             2.1764    -2.3091    -0.8980 C.ar    
   5 C5             0.9868    -2.6395    -0.2533 C.ar    
   6 N6             0.1008    -1.7058     0.0630 N.ar    
   7 C7             0.3082    -0.4350    -0.2119 C.ar    
   8 O8             2.7278     1.7322    -1.7360 O.2     
   9 O9             0.7796     2.3114    -0.8426 O.3     
  10 N10            0.7249    -3.9668     0.0625 N.am    
  11 C11            1.7909    -4.9670    -0.0352 C.3     
  12 C12            1.6894    -5.9372     1.1436 C.3     
  13 C13            1.6007    -5.1453     2.4497 C.3     
  14 C14            1.6785    -6.1082     3.6362 C.3     
  15 C15            0.4018    -5.9094    -1.8971 C.ar    
  16 C16            1.6475    -5.7295    -1.3271 C.ar    
  17 C17            2.7651    -6.2580    -1.9572 C.ar    
  18 C18            2.5888    -6.9512    -3.1427 C.ar    
  19 C19            1.3067    -7.0933    -3.6581 C.ar    
  20 N20            0.2653    -6.5746    -3.0275 N.ar    
  21 N21            1.1148    -7.7906    -4.8547 N.pl3   
  22 N22            2.1154    -8.3913    -5.6297 N.2     
  23 C23            1.5499    -8.9458    -6.6709 C.2     
  24 C24            0.1709    -8.7188    -6.5968 C.2     
  25 C25           -0.0758    -8.0117    -5.4702 C.2     
  26 C26           -0.8587    -9.1851    -7.5936 C.3     
  27 F27           -0.2257    -9.8911    -8.6222 F       
  28 F28           -1.7819   -10.0198    -6.9546 F       
  29 F29           -1.5244    -8.0774    -8.1293 F       
  30 C30            2.7611    -4.1508     2.5230 C.3     
  31 C31           -0.5098    -4.3343     0.4586 C.2     
  32 O32           -0.7460    -5.4997     0.7081 O.2     
  33 O33           -1.4814    -3.4101     0.5778 O.3     
  34 C34           -2.7867    -3.8777     1.0091 C.3     
  35 C35           -2.6654    -4.5270     2.3891 C.3     
  36 C36           -3.7528    -2.6938     1.0856 C.3     
  37 C37           -3.3171    -4.9049     0.0069 C.3     
  38 C38            1.0723     3.6927    -1.1809 C.3     
  39 H39            3.3466    -0.7192    -1.7084 H       
  40 H40            2.8909    -3.0784    -1.1512 H       
  41 H41           -0.4326     0.3008     0.0639 H       
  42 H42            2.7600    -4.4685    -0.0131 H       
  43 H43            0.7975    -6.5536     1.0311 H       
  44 H44            2.5723    -6.5761     1.1653 H       
  45 H45            0.6554    -4.6036     2.4827 H       
  46 H46            0.8919    -6.8576     3.5480 H       
  47 H47            2.6508    -6.6007     3.6412 H       
  48 H48            1.5480    -5.5521     4.5645 H       
  49 H49           -0.4717    -5.5039    -1.4083 H       
  50 H50            3.7501    -6.1312    -1.5327 H       
  51 H51            3.4367    -7.3754    -3.6599 H       
  52 H52            2.0602    -9.4863    -7.4543 H       
  53 H53           -1.0438    -7.6806    -5.1241 H       
  54 H54            2.7057    -3.4649     1.6777 H       
  55 H55            2.6979    -3.5867     3.4535 H       
  56 H56            3.7064    -4.6925     2.4900 H       
  57 H57           -2.2875    -3.7951     3.1030 H       
  58 H58           -3.6452    -4.8780     2.7129 H       
  59 H59           -1.9771    -5.3704     2.3346 H       
  60 H60           -3.8392    -2.2312     0.1024 H       
  61 H61           -4.7327    -3.0448     1.4093 H       
  62 H62           -3.3749    -1.9619     1.7995 H       
  63 H63           -2.6288    -5.7483    -0.0476 H       
  64 H64           -4.2969    -5.2559     0.3307 H       
  65 H65           -3.4035    -4.4423    -0.9762 H       
  66 H66            1.9879     4.0038    -0.6779 H       
  67 H67            1.2016     3.7831    -2.2594 H       
  68 H68            0.2472     4.3283    -0.8594 H       
@<TRIPOS>BOND
   1    1    2 1
   2    1    8 2
   3    1    9 1
   4    2    3 ar
   5    2    7 ar
   6    3    4 ar
   7    3   39 1
   8    4    5 ar
   9    4   40 1
  10    5    6 ar
  11    5   10 1
  12    6    7 ar
  13    7   41 1
  14    9   38 1
  15   10   11 1
  16   10   31 am
  17   11   12 1
  18   11   16 1
  19   11   42 1
  20   12   13 1
  21   12   43 1
  22   12   44 1
  23   13   14 1
  24   13   30 1
  25   13   45 1
  26   14   46 1
  27   14   47 1
  28   14   48 1
  29   15   16 ar
  30   15   20 ar
  31   15   49 1
  32   16   17 ar
  33   17   18 ar
  34   17   50 1
  35   18   19 ar
  36   18   51 1
  37   19   20 ar
  38   19   21 1
  39   21   22 1
  40   21   25 1
  41   22   23 2
  42   23   24 1
  43   23   52 1
  44   24   25 2
  45   24   26 1
  46   25   53 1
  47   26   27 1
  48   26   28 1
  49   26   29 1
  50   30   54 1
  51   30   55 1
  52   30   56 1
  53   31   32 2
  54   31   33 1
  55   33   34 1
  56   34   35 1
  57   34   37 1
  58   34   36 1
  59   35   57 1
  60   35   58 1
  61   35   59 1
  62   36   60 1
  63   36   61 1
  64   36   62 1
  65   37   63 1
  66   37   64 1
  67   37   65 1
  68   38   66 1
  69   38   67 1
  70   38   68 1

#	End of record

