#	Name: ASD03092751
#	Creating user name:	WinNT
#	Creation time:	15. 06. 2019 20:33

#	Modifying user name:	WinNT
#	Modification time:	15. 06. 2019 20:33

#	Program:	/corina/corina34_cracker 3.40 0067  02.08.2006

@<TRIPOS>MOLECULE
ASD03092751
  40   42    0    0    0
SMALL
NO_CHARGES


@<TRIPOS>ATOM
   1 C1            -0.0187     1.5258     0.0104 C.3     
   2 C2             0.0021    -0.0041     0.0020 C.3     
   3 C3             0.7421    -0.5109     1.2415 C.3     
   4 F4            -1.3104    -0.4883     0.0119 F       
   5 C5             0.7074    -0.4901    -1.2379 C.ar    
   6 C6             0.7599    -1.8389    -1.5286 C.ar    
   7 C7             1.4244    -2.2414    -2.6892 C.ar    
   8 N8             1.5042    -3.5831    -3.0250 N.pl3   
   9 C9             0.8888    -4.5926    -2.1599 C.3     
  10 C10            1.1169    -5.9624    -2.7454 C.ar    
  11 C11            0.2044    -6.5019    -3.6386 C.ar    
  12 N12            0.3781    -7.6957    -4.1649 N.ar    
  13 C13            1.4341    -8.4410    -3.8673 C.ar    
  14 N14            1.8464    -9.6899    -4.2656 N.pl3   
  15 H15            1.3692   -10.2611    -4.8876 H       
  16 C16            3.0297   -10.0097    -3.6554 C.2     
  17 C17            3.4194    -9.0033    -2.8574 C.2     
  18 C18            2.4024    -7.9560    -2.9671 C.ar    
  19 C19            2.2409    -6.6897    -2.4008 C.ar    
  20 C20            3.7825   -11.3006    -3.8504 C.3     
  21 F21            3.0857   -12.1157    -4.7488 F       
  22 F22            5.0555   -11.0253    -4.3613 F       
  23 F23            3.9054   -11.9589    -2.6221 F       
  24 N24            1.9788    -1.3163    -3.4668 N.ar    
  25 C25            1.9043    -0.0392    -3.1505 C.ar    
  26 N26            1.2804     0.3727    -2.0655 N.ar    
  27 H27            1.0039     1.9031     0.0027 H       
  28 H28           -0.5459     1.8868    -0.8726 H       
  29 H29           -0.5289     1.8773     0.9072 H       
  30 H30            0.2319    -0.1594     2.1383 H       
  31 H31            0.7568    -1.6008     1.2356 H       
  32 H32            1.7647    -0.1336     1.2338 H       
  33 H33            0.2990    -2.5644    -0.8747 H       
  34 H34            1.9676    -3.8541    -3.8329 H       
  35 H35            1.3367    -4.5425    -1.1675 H       
  36 H36           -0.1820    -4.4031    -2.0853 H       
  37 H37           -0.6703    -5.9290    -3.9090 H       
  38 H38            4.3121    -8.9722    -2.2504 H       
  39 H39            2.9706    -6.2919    -1.7111 H       
  40 H40            2.3641     0.6903    -3.8006 H       
@<TRIPOS>BOND
   1    1    2 1
   2    1   27 1
   3    1   28 1
   4    1   29 1
   5    2    3 1
   6    2    4 1
   7    2    5 1
   8    3   30 1
   9    3   31 1
  10    3   32 1
  11    5   26 ar
  12    5    6 ar
  13    6    7 ar
  14    6   33 1
  15    7    8 1
  16    7   24 ar
  17    8    9 1
  18    8   34 1
  19    9   10 1
  20    9   35 1
  21    9   36 1
  22   10   19 ar
  23   10   11 ar
  24   11   12 ar
  25   11   37 1
  26   12   13 ar
  27   13   18 ar
  28   13   14 1
  29   14   15 1
  30   14   16 1
  31   16   17 2
  32   16   20 1
  33   17   18 1
  34   17   38 1
  35   18   19 ar
  36   19   39 1
  37   20   21 1
  38   20   22 1
  39   20   23 1
  40   24   25 ar
  41   25   26 ar
  42   25   40 1

#	End of record

