#	Name: ASD01913138
#	Creating user name:	WinNT
#	Creation time:	15. 06. 2019 20:01

#	Modifying user name:	WinNT
#	Modification time:	15. 06. 2019 20:01

#	Program:	/corina/corina34_cracker 3.40 0067  02.08.2006

@<TRIPOS>MOLECULE
ASD01913138
  50   52    0    0    0
SMALL
NO_CHARGES


@<TRIPOS>ATOM
   1 C1             0.0418     1.1951     0.0238 C.ar    
   2 C2             0.0324    -0.1891     0.0524 C.ar    
   3 C3            -1.1683    -0.8722     0.0668 C.ar    
   4 C4            -2.3648    -0.1707     0.0527 C.ar    
   5 C5            -2.3539     1.2160     0.0241 C.ar    
   6 C6            -1.1518     1.8967     0.0150 C.ar    
   7 F7             1.2167     1.8619     0.0101 F       
   8 O8            -3.5471    -0.8417     0.0664 O.3     
   9 C9            -4.7398    -0.0548     0.0506 C.3     
  10 C10           -5.9600    -0.9777     0.0694 C.3     
  11 C11           -7.2178    -0.1479     0.0527 C.2     
  12 N12           -8.4231    -0.7509     0.0651 N.am    
  13 C13           -9.6630     0.0401     0.0491 C.3     
  14 C14          -10.5634    -0.4889    -1.0724 C.3     
  15 N15          -10.7518    -1.9359    -0.9034 N.3     
  16 C16           -9.4782    -2.6573    -1.0284 C.3     
  17 C17           -8.5334    -2.2173     0.0887 C.3     
  18 O18           -7.1455     1.0625     0.0281 O.2     
  19 C19          -11.6893    -2.4233    -1.8018 C.ar    
  20 C20          -13.0382    -2.0391    -1.6949 C.ar    
  21 C21          -13.9730    -2.5395    -2.6100 C.ar    
  22 C22          -13.5669    -3.4005    -3.6039 C.ar    
  23 C23          -12.2358    -3.7769    -3.7057 C.ar    
  24 C24          -11.3007    -3.2897    -2.8164 C.ar    
  25 C25          -15.4213    -2.1361    -2.5062 C.3     
  26 F26          -16.1531    -2.7600    -3.5223 F       
  27 F27          -15.9259    -2.5263    -1.2611 F       
  28 F28          -15.5293    -0.7476    -2.6389 F       
  29 C29          -13.4628    -1.1215    -0.6325 C.2     
  30 O30          -14.6063    -0.7175    -0.6011 O.2     
  31 H31            0.9642    -0.7351     0.0630 H       
  32 H32           -1.1753    -1.9520     0.0888 H       
  33 H33           -3.2848     1.7635     0.0126 H       
  34 H34           -1.1430     2.9765    -0.0069 H       
  35 H35           -4.7600     0.5921     0.9276 H       
  36 H36           -4.7602     0.5560    -0.8520 H       
  37 H37           -5.9398    -1.6246    -0.8076 H       
  38 H38           -5.9396    -1.5885     0.9720 H       
  39 H39          -10.1738    -0.0604     1.0068 H       
  40 H40           -9.4265     1.0881    -0.1347 H       
  41 H41          -11.5308     0.0114    -1.0287 H       
  42 H42          -10.0956    -0.2932    -2.0372 H       
  43 H43           -9.6586    -3.7296    -0.9528 H       
  44 H44           -9.0255    -2.4314    -1.9939 H       
  45 H45           -7.5506    -2.6625    -0.0663 H       
  46 H46           -8.9335    -2.5330     1.0522 H       
  47 H47          -14.2890    -3.7858    -4.3085 H       
  48 H48          -11.9285    -4.4531    -4.4897 H       
  49 H49          -10.2665    -3.5882    -2.9039 H       
  50 H50          -12.7575    -0.8054     0.1218 H       
@<TRIPOS>BOND
   1    1    2 ar
   2    1    7 1
   3    1    6 ar
   4    2    3 ar
   5    2   31 1
   6    3    4 ar
   7    3   32 1
   8    4    5 ar
   9    4    8 1
  10    5    6 ar
  11    5   33 1
  12    6   34 1
  13    8    9 1
  14    9   10 1
  15    9   35 1
  16    9   36 1
  17   10   11 1
  18   10   37 1
  19   10   38 1
  20   11   12 am
  21   11   18 2
  22   12   13 1
  23   12   17 1
  24   13   14 1
  25   13   39 1
  26   13   40 1
  27   14   15 1
  28   14   41 1
  29   14   42 1
  30   15   16 1
  31   15   19 1
  32   16   17 1
  33   16   43 1
  34   16   44 1
  35   17   45 1
  36   17   46 1
  37   19   20 ar
  38   19   24 ar
  39   20   21 ar
  40   20   29 1
  41   21   22 ar
  42   21   25 1
  43   22   23 ar
  44   22   47 1
  45   23   24 ar
  46   23   48 1
  47   24   49 1
  48   25   26 1
  49   25   27 1
  50   25   28 1
  51   29   30 2
  52   29   50 1

#	End of record

