#	Name: ASD01880854
#	Creating user name:	WinNT
#	Creation time:	15. 06. 2019 19:41

#	Modifying user name:	WinNT
#	Modification time:	15. 06. 2019 19:41

#	Program:	/corina/corina34_cracker 3.40 0067  02.08.2006

@<TRIPOS>MOLECULE
ASD01880854
  42   44    0    0    0
SMALL
NO_CHARGES


@<TRIPOS>ATOM
   1 N1            -0.0159     1.3190     0.0093 N.ar    
   2 C2             0.0021    -0.0041     0.0020 C.ar    
   3 N3             1.1382    -0.6822    -0.0120 N.ar    
   4 C4             2.3018    -0.0527    -0.0198 C.ar    
   5 C5             2.3204     1.3331    -0.0129 C.ar    
   6 C6             1.1117     2.0110     0.0022 C.ar    
   7 C7             3.6258     2.0860    -0.0209 C.3     
   8 O8             4.0263     2.3307    -1.3706 O.3     
   9 C9             5.1902     3.0038    -1.5555 C.ar    
  10 C10            5.6387     3.2757    -2.8443 C.ar    
  11 C11            6.8159     3.9570    -3.0299 C.ar    
  12 C12            7.5694     4.3808    -1.9302 C.ar    
  13 C13            7.1141     4.1055    -0.6378 C.ar    
  14 C14            5.9300     3.4260    -0.4573 C.ar    
  15 C15            7.5681     4.4035    -4.2589 C.3     
  16 N16            8.7701     5.0924    -3.7757 N.am    
  17 C17            8.7669     5.0770    -2.4318 C.2     
  18 O18            9.6295     5.5683    -1.7297 O.2     
  19 C19            7.9156     4.5555     0.5564 C.3     
  20 O20           -1.1713    -0.6808     0.0096 O.3     
  21 C21           -1.0972    -2.1079     0.0012 C.3     
  22 C22            9.4430     7.1570    -4.9010 C.3     
  23 C23            9.8040     5.6971    -4.6194 C.3     
  24 H24            3.2258    -0.6118    -0.0309 H       
  25 H25            1.0905     3.0908     0.0075 H       
  26 H26            3.5005     3.0358     0.4989 H       
  27 H27            4.3897     1.4940     0.4831 H       
  28 H28            5.0617     2.9508    -3.6975 H       
  29 H29            5.5785     3.2138     0.5416 H       
  30 H30            7.8481     3.5393    -4.8613 H       
  31 H31            6.9547     5.0872    -4.8458 H       
  32 H32            7.5958     5.5543     0.8532 H       
  33 H33            7.7567     3.8625     1.3826 H       
  34 H34            8.9742     4.5750     0.2971 H       
  35 H35           -0.5568    -2.4488     0.8843 H       
  36 H36           -2.1046    -2.5241     0.0086 H       
  37 H37           -0.5738    -2.4393    -0.8956 H       
  38 H38            8.4828     7.2011    -5.4151 H       
  39 H39            9.3768     7.7029    -3.9600 H       
  40 H40           10.2122     7.6069    -5.5288 H       
  41 H41           10.7642     5.6529    -4.1054 H       
  42 H42            9.8702     5.1511    -5.5605 H       
@<TRIPOS>BOND
   1    1    2 ar
   2    1    6 ar
   3    2    3 ar
   4    2   20 1
   5    3    4 ar
   6    4    5 ar
   7    4   24 1
   8    5    6 ar
   9    5    7 1
  10    6   25 1
  11    7    8 1
  12    7   26 1
  13    7   27 1
  14    8    9 1
  15    9   10 ar
  16    9   14 ar
  17   10   11 ar
  18   10   28 1
  19   11   12 ar
  20   11   15 1
  21   12   13 ar
  22   12   17 1
  23   13   14 ar
  24   13   19 1
  25   14   29 1
  26   15   16 1
  27   15   30 1
  28   15   31 1
  29   16   17 am
  30   16   23 1
  31   17   18 2
  32   19   32 1
  33   19   33 1
  34   19   34 1
  35   20   21 1
  36   21   35 1
  37   21   36 1
  38   21   37 1
  39   22   23 1
  40   22   38 1
  41   22   39 1
  42   22   40 1
  43   23   41 1
  44   23   42 1

#	End of record

