#	Name: ASD01180089
#	Creating user name:	WinNT
#	Creation time:	15. 06. 2019 19:06

#	Modifying user name:	WinNT
#	Modification time:	15. 06. 2019 19:06

#	Program:	/corina/corina34_cracker 3.40 0067  02.08.2006

@<TRIPOS>MOLECULE
ASD01180089
  56   58    0    0    0
SMALL
NO_CHARGES


@<TRIPOS>ATOM
   1 C1             0.6591     1.4620    -0.8917 C.2     
   2 C2             0.5996    -0.0393    -0.7756 C.3     
   3 C3             2.0190    -0.6098    -0.8050 C.3     
   4 O4             1.7272     2.0187    -0.9881 O.2     
   5 O5            -0.4747     2.1805    -0.8936 O.3     
   6 N6             1.9612    -2.0693    -0.6922 N.am    
   7 C7             3.0994    -2.7911    -0.6958 C.2     
   8 C8             3.0410    -4.2640    -0.5819 C.ar    
   9 C9             4.2179    -5.0144    -0.5854 C.ar    
  10 C10            4.1564    -6.3884    -0.4783 C.ar    
  11 C11            2.9317    -7.0227    -0.3681 C.ar    
  12 C12            1.7614    -6.2847    -0.3640 C.ar    
  13 C13            1.8092    -4.9096    -0.4646 C.ar    
  14 O14            4.1739    -2.2311    -0.7928 O.2     
  15 C15            2.8722    -8.5241    -0.2524 C.3     
  16 C16            2.6745    -8.9153     1.2135 C.3     
  17 C17            3.9133    -8.5182     2.0188 C.3     
  18 C18            3.6635    -8.7864     3.5042 C.3     
  19 C19            5.1138    -9.3409     1.5468 C.3     
  20 N20            1.7518    -9.0312    -1.0485 N.pl3   
  21 N21            0.8316   -10.6961    -2.3849 N.ar    
  22 C22            1.8070   -10.3034    -1.5885 C.ar    
  23 N23            2.8429   -11.0827    -1.2841 N.ar    
  24 C24            2.9530   -12.3031    -1.7665 C.ar    
  25 C25            1.9439   -12.7798    -2.6223 C.ar    
  26 C26            1.9869   -14.0673    -3.1782 C.ar    
  27 C27            0.9824   -14.4770    -4.0012 C.ar    
  28 C28           -0.0893   -13.6339    -4.2999 C.ar    
  29 C29           -0.1616   -12.3758    -3.7759 C.ar    
  30 C30            0.8548   -11.9213    -2.9245 C.ar    
  31 F31           -1.0698   -14.0699    -5.1207 F       
  32 H32            0.1177    -0.3123     0.1632 H       
  33 H33            0.0273    -0.4458    -1.6095 H       
  34 H34            2.5009    -0.3367    -1.7438 H       
  35 H35            2.5913    -0.2032     0.0288 H       
  36 H36           -0.3861     3.1403    -0.9702 H       
  37 H37            1.1037    -2.5161    -0.6148 H       
  38 H38            5.1744    -4.5206    -0.6721 H       
  39 H39            5.0663    -6.9703    -0.4809 H       
  40 H40            0.8087    -6.7859    -0.2776 H       
  41 H41            0.8952    -4.3343    -0.4568 H       
  42 H42            3.8036    -8.9541    -0.6208 H       
  43 H43            1.8011    -8.3996     1.6125 H       
  44 H44            2.5246    -9.9926     1.2850 H       
  45 H45            4.1186    -7.4580     1.8706 H       
  46 H46            3.4583    -9.8466     3.6525 H       
  47 H47            4.5461    -8.5035     4.0780 H       
  48 H48            2.8083    -8.2003     3.8405 H       
  49 H49            4.8724   -10.4022     1.6051 H       
  50 H50            5.3515    -9.0784     0.5159 H       
  51 H51            5.9729    -9.1282     2.1831 H       
  52 H52            0.9713    -8.4747    -1.1970 H       
  53 H53            3.7992   -12.9237    -1.5110 H       
  54 H54            2.8111   -14.7286    -2.9552 H       
  55 H55            1.0155   -15.4680    -4.4291 H       
  56 H56           -0.9966   -11.7342    -4.0160 H       
@<TRIPOS>BOND
   1    1    2 1
   2    1    4 2
   3    1    5 1
   4    2    3 1
   5    2   32 1
   6    2   33 1
   7    3    6 1
   8    3   34 1
   9    3   35 1
  10    5   36 1
  11    6    7 am
  12    6   37 1
  13    7    8 1
  14    7   14 2
  15    8    9 ar
  16    8   13 ar
  17    9   10 ar
  18    9   38 1
  19   10   11 ar
  20   10   39 1
  21   11   12 ar
  22   11   15 1
  23   12   13 ar
  24   12   40 1
  25   13   41 1
  26   15   16 1
  27   15   20 1
  28   15   42 1
  29   16   17 1
  30   16   43 1
  31   16   44 1
  32   17   18 1
  33   17   19 1
  34   17   45 1
  35   18   46 1
  36   18   47 1
  37   18   48 1
  38   19   49 1
  39   19   50 1
  40   19   51 1
  41   20   22 1
  42   20   52 1
  43   21   22 ar
  44   21   30 ar
  45   22   23 ar
  46   23   24 ar
  47   24   25 ar
  48   24   53 1
  49   25   26 ar
  50   25   30 ar
  51   26   27 ar
  52   26   54 1
  53   27   28 ar
  54   27   55 1
  55   28   29 ar
  56   28   31 1
  57   29   30 ar
  58   29   56 1

#	End of record

