#	Name: ASD01910552
#	Creating user name:	WinNT
#	Creation time:	15. 06. 2019 19:56

#	Modifying user name:	WinNT
#	Modification time:	15. 06. 2019 19:56

#	Program:	/corina/corina34_cracker 3.40 0067  02.08.2006

@<TRIPOS>MOLECULE
ASD01910552
  42   45    0    0    0
SMALL
NO_CHARGES


@<TRIPOS>ATOM
   1 N1             0.0808     0.1656     0.1033 N.2     
   2 C2             0.1255    -1.0144     0.6712 C.2     
   3 N3             1.4316    -1.3155     0.8615 N.2     
   4 C4             2.1002    -0.2917     0.3935 C.2     
   5 O5             1.2048     0.5905    -0.0613 O.3     
   6 C6            -1.0320    -1.8575     1.0362 C.2     
   7 C7            -2.3448    -1.5459     0.8410 C.2     
   8 C8            -3.1069    -2.6188     1.3301 C.2     
   9 C9            -2.2484    -3.5490     1.8067 C.2     
  10 N10           -0.9755    -3.0949     1.6259 N.pl3   
  11 C11            3.9968     1.1034     1.1781 C.3     
  12 C12            3.5991    -0.1368     0.3716 C.3     
  13 C13            4.0748     0.0255    -1.0739 C.3     
  14 C14            5.5999     0.1500    -1.0999 C.3     
  15 C15            6.0203     1.3934    -0.3100 C.3     
  16 N16            5.4443     1.3137     1.0392 N.am    
  17 C17            6.2288     1.4307     2.1288 C.2     
  18 C18            7.6926     1.5574     1.9749 C.ar    
  19 O19            5.7320     1.4321     3.2383 O.2     
  20 C20            8.2253     2.5053     1.0991 C.ar    
  21 C21            9.5922     2.6202     0.9583 C.ar    
  22 C22           10.4382     1.7968     1.6838 C.ar    
  23 C23            9.9149     0.8516     2.5563 C.ar    
  24 C24            8.5483     0.7333     2.7093 C.ar    
  25 F25           11.7766     1.9136     1.5415 F       
  26 F26           -4.4551    -2.7063     1.3255 F       
  27 F27           10.7445     0.0512     3.2608 F       
  28 H28           -2.7278    -0.6408     0.3933 H       
  29 H29           -2.5243    -4.4936     2.2516 H       
  30 H30           -0.1655    -3.5652     1.8782 H       
  31 H31            3.4629     1.9738     0.7970 H       
  32 H32            3.7488     0.9511     2.2286 H       
  33 H33            4.0631    -1.0203     0.8103 H       
  34 H34            3.7715    -0.8448    -1.6559 H       
  35 H35            3.6299     0.9227    -1.5040 H       
  36 H36            6.0450    -0.7362    -0.6474 H       
  37 H37            5.9399     0.2421    -2.1314 H       
  38 H38            7.1074     1.4325    -0.2415 H       
  39 H39            5.6514     2.2875    -0.8126 H       
  40 H40            7.5675     3.1475     0.5323 H       
  41 H41           10.0042     3.3534     0.2808 H       
  42 H42            8.1413    -0.0016     3.3881 H       
@<TRIPOS>BOND
   1    1    2 2
   2    1    5 1
   3    2    3 1
   4    2    6 1
   5    3    4 2
   6    4    5 1
   7    4   12 1
   8    6    7 2
   9    6   10 1
  10    7    8 1
  11    7   28 1
  12    8    9 2
  13    8   26 1
  14    9   10 1
  15    9   29 1
  16   10   30 1
  17   11   12 1
  18   11   16 1
  19   11   31 1
  20   11   32 1
  21   12   13 1
  22   12   33 1
  23   13   14 1
  24   13   34 1
  25   13   35 1
  26   14   15 1
  27   14   36 1
  28   14   37 1
  29   15   16 1
  30   15   38 1
  31   15   39 1
  32   16   17 am
  33   17   18 1
  34   17   19 2
  35   18   20 ar
  36   18   24 ar
  37   20   21 ar
  38   20   40 1
  39   21   22 ar
  40   21   41 1
  41   22   23 ar
  42   22   25 1
  43   23   24 ar
  44   23   27 1
  45   24   42 1

#	End of record

