#	Name: ASD04220023
#	Creating user name:	WinNT
#	Creation time:	15. 06. 2019 20:48

#	Modifying user name:	WinNT
#	Modification time:	15. 06. 2019 20:48

#	Program:	/corina/corina34_cracker 3.40 0067  02.08.2006

@<TRIPOS>MOLECULE
ASD04220023
  61   63    0    0    0
SMALL
NO_CHARGES


@<TRIPOS>ATOM
   1 C1             0.0411     1.6412    -0.0330 C.3     
   2 N2            -0.0508     0.1827     0.0935 N.am    
   3 C3             0.8131    -0.6267    -0.7821 C.3     
   4 C4             2.2653    -0.3385    -0.4043 C.3     
   5 C5             2.5058     1.1439    -0.2906 C.ar    
   6 C6             3.8237     1.5925    -0.3692 C.ar    
   7 C7             4.1160     2.9408    -0.2630 C.ar    
   8 C8             3.0949     3.8527    -0.0771 C.ar    
   9 C9             1.7853     3.4107    -0.0028 C.ar    
  10 C10            1.4895     2.0539    -0.1130 C.ar    
  11 C11            0.5147    -2.0901    -0.5812 C.2     
  12 O12            1.1747    -2.7404     0.1943 O.2     
  13 O13           -0.4843    -2.6712    -1.2639 O.3     
  14 O14            0.7797     4.3078     0.1794 O.3     
  15 C15            1.1494     5.6841     0.2853 C.3     
  16 O16            4.8307     0.6970    -0.5513 O.3     
  17 C17            6.1587     1.2198    -0.6235 C.3     
  18 C18           -0.8916    -0.3931     0.9755 C.2     
  19 C19           -1.6730     0.4615     1.9399 C.3     
  20 C20           -2.5447    -0.4332     2.8234 C.3     
  21 O21           -1.0193    -1.5990     0.9931 O.2     
  22 C22           -3.3261     0.4215     3.7878 C.ar    
  23 C23           -4.5324     0.9835     3.3962 C.ar    
  24 C24           -5.2517     1.7695     4.2838 C.ar    
  25 C25           -4.7672     1.9925     5.5582 C.ar    
  26 C26           -3.5615     1.4303     5.9498 C.ar    
  27 C27           -2.8441     0.6404     5.0634 C.ar    
  28 O28           -3.0845     1.6497     7.2042 O.3     
  29 C29           -3.8774     2.4691     8.0656 C.3     
  30 O30           -5.0093     0.7640     2.1418 O.3     
  31 C31           -6.2575     1.3736     1.8064 C.3     
  32 C32           -0.7148    -4.0839    -1.0202 C.3     
  33 H33           -0.4774     1.9603    -0.9371 H       
  34 H34           -0.4223     2.1105     0.8349 H       
  35 H35            0.6418    -0.3541    -1.8234 H       
  36 H36            2.4877    -0.8121     0.5519 H       
  37 H37            2.9232    -0.7508    -1.1692 H       
  38 H38            5.1397     3.2794    -0.3249 H       
  39 H39            3.3175     4.9060     0.0096 H       
  40 H40            1.8177     5.8164     1.1361 H       
  41 H41            1.6574     5.9950    -0.6276 H       
  42 H42            0.2551     6.2906     0.4280 H       
  43 H43            6.3947     1.7413     0.3041 H       
  44 H44            6.8638     0.4016    -0.7698 H       
  45 H45            6.2304     1.9153    -1.4597 H       
  46 H46           -0.9827     1.0278     2.5652 H       
  47 H47           -2.3075     1.1508     1.3827 H       
  48 H48           -3.2350    -0.9994     2.1981 H       
  49 H49           -1.9102    -1.1225     3.3805 H       
  50 H50           -6.1905     2.2076     3.9787 H       
  51 H51           -5.3272     2.6049     6.2494 H       
  52 H52           -1.9071     0.1992     5.3697 H       
  53 H53           -3.3840     2.5634     9.0329 H       
  54 H54           -3.9954     3.4569     7.6201 H       
  55 H55           -4.8577     2.0121     8.2008 H       
  56 H56           -7.0322     1.0107     2.4819 H       
  57 H57           -6.1704     2.4559     1.9014 H       
  58 H58           -6.5220     1.1190     0.7801 H       
  59 H59           -0.9517    -4.2371     0.0326 H       
  60 H60           -1.5477    -4.4273    -1.6337 H       
  61 H61            0.1820    -4.6479    -1.2766 H       
@<TRIPOS>BOND
   1    1    2 1
   2    1   10 1
   3    1   33 1
   4    1   34 1
   5    2    3 1
   6    2   18 am
   7    3    4 1
   8    3   11 1
   9    3   35 1
  10    4    5 1
  11    4   36 1
  12    4   37 1
  13    5    6 ar
  14    5   10 ar
  15    6    7 ar
  16    6   16 1
  17    7    8 ar
  18    7   38 1
  19    8    9 ar
  20    8   39 1
  21    9   10 ar
  22    9   14 1
  23   11   12 2
  24   11   13 1
  25   13   32 1
  26   14   15 1
  27   15   40 1
  28   15   41 1
  29   15   42 1
  30   16   17 1
  31   17   43 1
  32   17   44 1
  33   17   45 1
  34   18   19 1
  35   18   21 2
  36   19   20 1
  37   19   46 1
  38   19   47 1
  39   20   22 1
  40   20   48 1
  41   20   49 1
  42   22   23 ar
  43   22   27 ar
  44   23   24 ar
  45   23   30 1
  46   24   25 ar
  47   24   50 1
  48   25   26 ar
  49   25   51 1
  50   26   27 ar
  51   26   28 1
  52   27   52 1
  53   28   29 1
  54   29   53 1
  55   29   54 1
  56   29   55 1
  57   30   31 1
  58   31   56 1
  59   31   57 1
  60   31   58 1
  61   32   59 1
  62   32   60 1
  63   32   61 1

#	End of record

