#	Name: ASD01320090
#	Creating user name:	WinNT
#	Creation time:	15. 06. 2019 19:15

#	Modifying user name:	WinNT
#	Modification time:	15. 06. 2019 19:15

#	Program:	/corina/corina34_cracker 3.40 0067  02.08.2006

@<TRIPOS>MOLECULE
ASD01320090
  47   48    0    0    0
SMALL
NO_CHARGES


@<TRIPOS>ATOM
   1 Cl1           -0.0289     1.0843     2.0977 Cl      
   2 Cl2            2.3824     5.4931     0.1201 Cl      
   3 C3            -0.1172     2.5823     1.2248 C.ar    
   4 N4            -3.7320     2.6263     0.3802 N.am    
   5 O5            -2.4996     1.1553     1.4977 O.2     
   6 C6             1.0189     3.3446     1.0418 C.ar    
   7 N7            -6.0198     2.3064     0.0438 N.am    
   8 O8            -4.7874     0.8352     1.1614 O.2     
   9 C9             0.9493     4.5396     0.3457 C.ar    
  10 O10          -10.7577     1.7664     0.5140 O.3     
  11 C11           -0.2591     4.9779    -0.1712 C.ar    
  12 O12          -16.4713    -0.9967     1.0374 O.2     
  13 C13           -1.4012     4.2260     0.0040 C.ar    
  14 O14          -17.1283    -0.1624     2.9880 O.3     
  15 C15           -1.3382     3.0170     0.7004 C.ar    
  16 C16           -2.5566     2.2045     0.8870 C.2     
  17 C17           -4.8444     1.8846     0.5506 C.2     
  18 C18           -7.1484     1.4822     0.1150 C.ar    
  19 C19           -7.0098     0.1036     0.0192 C.ar    
  20 C20           -8.1243    -0.7100     0.0890 C.ar    
  21 C21           -9.3788    -0.1551     0.2545 C.ar    
  22 C22           -9.5232     1.2220     0.3512 C.ar    
  23 C23           -8.4072     2.0411     0.2870 C.ar    
  24 C24           -8.5606     3.5362     0.3979 C.3     
  25 C25          -11.8623     0.8621     0.5773 C.3     
  26 C26          -13.1590     1.6531     0.7612 C.3     
  27 C27          -14.3240     0.6994     0.8280 C.2     
  28 C28          -15.1528     0.7332     1.8687 C.2     
  29 C29          -16.2888    -0.1967     1.9339 C.2     
  30 H30           -3.7775     3.4637    -0.1072 H       
  31 H31            1.9638     3.0086     1.4426 H       
  32 H32           -6.0834     3.1813    -0.3702 H       
  33 H33           -0.3064     5.9113    -0.7126 H       
  34 H34           -2.3423     4.5694    -0.3997 H       
  35 H35          -17.8610    -0.7935     2.9864 H       
  36 H36           -6.0304    -0.3326    -0.1101 H       
  37 H37           -8.0147    -1.7818     0.0137 H       
  38 H38          -10.2481    -0.7937     0.3083 H       
  39 H39           -8.7084     3.9610    -0.5949 H       
  40 H40           -9.4224     3.7675     1.0240 H       
  41 H41           -7.6621     3.9614     0.8450 H       
  42 H42          -11.9152     0.2877    -0.3476 H       
  43 H43          -11.7283     0.1832     1.4195 H       
  44 H44          -13.1062     2.2275     1.6861 H       
  45 H45          -13.2931     2.3319    -0.0809 H       
  46 H46          -14.4862    -0.0116     0.0314 H       
  47 H47          -14.9906     1.4442     2.6654 H       
@<TRIPOS>BOND
   1    1    3 1
   2    2    9 1
   3    3    6 ar
   4    3   15 ar
   5    4   16 am
   6    4   17 am
   7    4   30 1
   8    5   16 2
   9    6    9 ar
  10    6   31 1
  11    7   17 am
  12    7   18 1
  13    7   32 1
  14    8   17 2
  15    9   11 ar
  16   10   22 1
  17   10   25 1
  18   11   13 ar
  19   11   33 1
  20   12   29 2
  21   13   15 ar
  22   13   34 1
  23   14   29 1
  24   14   35 1
  25   15   16 1
  26   18   19 ar
  27   18   23 ar
  28   19   20 ar
  29   19   36 1
  30   20   21 ar
  31   20   37 1
  32   21   22 ar
  33   21   38 1
  34   22   23 ar
  35   23   24 1
  36   24   39 1
  37   24   40 1
  38   24   41 1
  39   25   26 1
  40   25   42 1
  41   25   43 1
  42   26   27 1
  43   26   44 1
  44   26   45 1
  45   27   28 2
  46   27   46 1
  47   28   29 1
  48   28   47 1

#	End of record

