#	Name: ASD01410846
#	Creating user name:	WinNT
#	Creation time:	15. 06. 2019 19:18

#	Modifying user name:	WinNT
#	Modification time:	15. 06. 2019 19:18

#	Program:	/corina/corina34_cracker 3.40 0067  02.08.2006

@<TRIPOS>MOLECULE
ASD01410846
 119  126    0    0    0
SMALL
NO_CHARGES


@<TRIPOS>ATOM
   1 C1            -0.3389     1.2778     0.7636 C.3     
   2 C2             0.1466    -0.1620     1.0509 C.3     
   3 N3             0.6398    -0.1143     2.4428 N.am    
   4 C4            -0.0743     0.9545     3.1521 C.3     
   5 C5            -0.9864     1.6575     2.1233 C.3     
   6 O6             0.7601     2.1393     0.4599 O.3     
   7 C7            -0.9096     0.3655     4.2595 C.2     
   8 O8            -0.9131    -0.8331     4.4446 O.2     
   9 N9            -1.6528     1.1707     5.0442 N.am    
  10 C10            1.3394    -0.4953     0.1478 C.3     
  11 N11            1.9613    -1.7234     0.6591 N.am    
  12 C12            2.4091    -1.8105     2.0473 C.3     
  13 C13            1.6092    -0.9020     2.9380 C.2     
  14 O14            1.8434    -0.8795     4.1277 O.2     
  15 C15            2.2541    -3.2527     2.5340 C.3     
  16 C16            2.9126    -3.4012     3.9070 C.3     
  17 C17            0.7673    -3.5976     2.6414 C.3     
  18 C18           -2.5306     0.5922     6.0645 C.3     
  19 C19           -3.5958    -0.3424     5.5515 C.2     
  20 N20           -3.7634    -0.5097     4.2248 N.am    
  21 O21           -4.3021    -0.9440     6.3326 O.2     
  22 S22           -5.0138    -1.4361     3.6585 S.o2    
  23 C23           -6.5069    -0.5344     4.1567 C.3     
  24 C24           -1.9165     0.2814     7.4310 C.3     
  25 C25           -2.8774     1.4626     7.2741 C.3     
  26 C26           -7.8578    -1.1972     3.8797 C.3     
  27 C27           -7.3276    -1.1106     5.3123 C.3     
  28 O28           -4.8609    -1.4056     2.2461 O.2     
  29 O29           -4.9026    -2.6545     4.3813 O.2     
  30 C30           -2.4312    -0.9541     8.1723 C.3     
  31 C31           -1.6126    -1.1611     9.4482 C.3     
  32 C32            0.5150     3.1785    -0.3761 C.ar    
  33 C33            1.5307     4.1107    -0.6928 C.ar    
  34 C34           -0.7215     3.3503    -0.9409 C.ar    
  35 C35           -0.9492     4.4323    -1.8022 C.ar    
  36 N36            0.0059     5.3009    -2.0882 N.ar    
  37 C37            1.2328     5.1819    -1.5710 C.ar    
  38 C38           -2.2874     4.6062    -2.4048 C.2     
  39 S39           -3.6754     3.5559    -2.1328 S.3     
  40 C40            2.2397     6.1123    -1.8823 C.ar    
  41 C41            3.4946     5.9651    -1.3346 C.ar    
  42 C42            3.7778     4.9015    -0.4730 C.ar    
  43 C43            2.8192     3.9896    -0.1527 C.ar    
  44 Cl44           1.9034     7.4382    -2.9512 Cl      
  45 O45            4.4685     6.8636    -1.6353 O.3     
  46 C46            5.7492     6.6571    -1.0360 C.3     
  47 N47           -2.6314     5.5639    -3.2179 N.2     
  48 C48           -3.8672     5.5604    -3.6556 C.2     
  49 C49           -4.6415     4.5628    -3.2096 C.2     
  50 C50           -4.3849     6.6144    -4.6001 C.3     
  51 C51           -4.2746     6.1080    -6.0396 C.3     
  52 C52           -5.8497     6.9147    -4.2759 C.3     
  53 S53            2.1565    -3.0235    -0.3479 S.o2    
  54 C54            6.7079     7.7602    -1.4887 C.3     
  55 N55            6.2424     9.0551    -0.9745 N.3     
  56 C56            7.2549    10.1001    -1.1841 C.3     
  57 C57            3.9466    -3.1153    -0.6266 C.3     
  58 O58            1.7143    -4.1328     0.4223 O.2     
  59 C59            6.7065    11.4411    -0.6894 C.3     
  60 O60            6.3311    11.3190     0.6852 O.3     
  61 C61            5.3459    10.3105     0.9256 C.3     
  62 C62            5.8805     8.9581     0.4472 C.3     
  63 O63            1.4847    -2.6460    -1.5418 O.2     
  64 H64           -1.0763     1.2897    -0.0390 H       
  65 H65           -0.6629    -0.8834     0.9401 H       
  66 H66            0.6399     1.6681     3.5630 H       
  67 H67           -0.9708     2.7376     2.2692 H       
  68 H68           -2.0047     1.2739     2.1856 H       
  69 H69           -1.6065     2.1332     4.9334 H       
  70 H70            0.9954    -0.6539    -0.8743 H       
  71 H71            2.0607     0.3215     0.1726 H       
  72 H72            3.4605    -1.5279     2.1013 H       
  73 H73            2.7336    -3.9286     1.8260 H       
  74 H74            2.4331    -2.7252     4.6150 H       
  75 H75            2.8021    -4.4286     4.2537 H       
  76 H76            3.9718    -3.1555     3.8304 H       
  77 H77            0.2982    -3.4919     1.6633 H       
  78 H78            0.6569    -4.6251     2.9882 H       
  79 H79            0.2878    -2.9217     3.3494 H       
  80 H80           -3.1517    -0.0875     3.6015 H       
  81 H81           -6.4516     0.5507     4.0703 H       
  82 H82           -0.8594     0.5073     7.5708 H       
  83 H83           -2.4522     2.4656     7.3109 H       
  84 H84           -3.8758     1.3591     7.6990 H       
  85 H85           -8.6913    -0.5480     3.6115 H       
  86 H86           -7.8494    -2.1750     3.3981 H       
  87 H87           -6.9703    -2.0315     5.7732 H       
  88 H88           -7.8123    -0.4045     5.9865 H       
  89 H89           -3.4799    -0.8110     8.4326 H       
  90 H90           -2.3323    -1.8300     7.5310 H       
  91 H91           -0.5639    -1.3043     9.1878 H       
  92 H92           -1.7115    -0.2853    10.0894 H       
  93 H93           -1.9792    -2.0413     9.9763 H       
  94 H94           -1.5179     2.6540    -0.7235 H       
  95 H95            4.7683     4.8037    -0.0539 H       
  96 H96            3.0514     3.1726     0.5143 H       
  97 H97            5.6510     6.6839     0.0492 H       
  98 H98            6.1412     5.6870    -1.3416 H       
  99 H99           -5.6789     4.4036    -3.4646 H       
 100 H100          -3.7944     7.5238    -4.4886 H       
 101 H101          -4.8651     5.1986    -6.1511 H       
 102 H102          -4.6490     6.8704    -6.7227 H       
 103 H103          -3.2310     5.8941    -6.2705 H       
 104 H104          -6.4403     6.0053    -4.3874 H       
 105 H105          -5.9283     7.2755    -3.2504 H       
 106 H106          -6.2241     7.6771    -4.9590 H       
 107 H107           7.7066     7.5541    -1.1037 H       
 108 H108           6.7377     7.7912    -2.5779 H       
 109 H109           8.1580     9.8487    -0.6279 H       
 110 H110           7.4891    10.1721    -2.2462 H       
 111 H111           4.4559    -3.2587     0.3264 H       
 112 H112           4.1690    -3.9534    -1.2870 H       
 113 H113           4.2907    -2.1890    -1.0866 H       
 114 H114           7.4746    12.2079    -0.7902 H       
 115 H115           5.8345    11.7185    -1.2816 H       
 116 H116           5.1299    10.2597     1.9927 H       
 117 H117           4.4343    10.5550     0.3803 H       
 118 H118           5.1114     8.1965     0.5758 H       
 119 H119           6.7616     8.6884     1.0294 H       
@<TRIPOS>BOND
   1    1    2 1
   2    1    6 1
   3    1    5 1
   4    1   64 1
   5    2    3 1
   6    2   10 1
   7    2   65 1
   8    3    4 1
   9    3   13 am
  10    4    5 1
  11    4    7 1
  12    4   66 1
  13    5   67 1
  14    5   68 1
  15    6   32 1
  16    7    8 2
  17    7    9 am
  18    9   18 1
  19    9   69 1
  20   10   11 1
  21   10   70 1
  22   10   71 1
  23   11   12 1
  24   11   53 am
  25   12   13 1
  26   12   15 1
  27   12   72 1
  28   13   14 2
  29   15   16 1
  30   15   17 1
  31   15   73 1
  32   16   74 1
  33   16   75 1
  34   16   76 1
  35   17   77 1
  36   17   78 1
  37   17   79 1
  38   18   19 1
  39   18   24 1
  40   18   25 1
  41   19   20 am
  42   19   21 2
  43   20   22 am
  44   20   80 1
  45   22   23 1
  46   22   28 2
  47   22   29 2
  48   23   26 1
  49   23   27 1
  50   23   81 1
  51   24   25 1
  52   24   30 1
  53   24   82 1
  54   25   83 1
  55   25   84 1
  56   26   27 1
  57   26   85 1
  58   26   86 1
  59   27   87 1
  60   27   88 1
  61   30   31 1
  62   30   89 1
  63   30   90 1
  64   31   91 1
  65   31   92 1
  66   31   93 1
  67   32   33 ar
  68   32   34 ar
  69   33   37 ar
  70   33   43 ar
  71   34   35 ar
  72   34   94 1
  73   35   36 ar
  74   35   38 1
  75   36   37 ar
  76   37   40 ar
  77   38   47 2
  78   38   39 1
  79   39   49 1
  80   40   41 ar
  81   40   44 1
  82   41   42 ar
  83   41   45 1
  84   42   43 ar
  85   42   95 1
  86   43   96 1
  87   45   46 1
  88   46   54 1
  89   46   97 1
  90   46   98 1
  91   47   48 1
  92   48   49 2
  93   48   50 1
  94   49   99 1
  95   50   51 1
  96   50   52 1
  97   50  100 1
  98   51  101 1
  99   51  102 1
 100   51  103 1
 101   52  104 1
 102   52  105 1
 103   52  106 1
 104   53   57 1
 105   53   58 2
 106   53   63 2
 107   54   55 1
 108   54  107 1
 109   54  108 1
 110   55   56 1
 111   55   62 1
 112   56   59 1
 113   56  109 1
 114   56  110 1
 115   57  111 1
 116   57  112 1
 117   57  113 1
 118   59   60 1
 119   59  114 1
 120   59  115 1
 121   60   61 1
 122   61   62 1
 123   61  116 1
 124   61  117 1
 125   62  118 1
 126   62  119 1

#	End of record

