#	Name: ASD00310046
#	Creating user name:	WinNT
#	Creation time:	15. 06. 2019 18:33

#	Modifying user name:	WinNT
#	Modification time:	15. 06. 2019 18:33

#	Program:	/corina/corina34_cracker 3.40 0067  02.08.2006

@<TRIPOS>MOLECULE
ASD00310046
  47   49    0    0    0
SMALL
NO_CHARGES


@<TRIPOS>ATOM
   1 O1            -0.0174     1.4305     0.0099 O.3     
   2 B2             0.0021    -0.0041     0.0020 Du      
   3 O3             1.0670    -0.3534    -0.8937 O.3     
   4 C4             2.1089     0.6053    -0.6139 C.3     
   5 C5             1.3736     1.8147    -0.0013 C.3     
   6 C6            -0.9361    -0.9782     0.7993 C.ar    
   7 C7            -0.7783    -2.3593     0.6744 C.ar    
   8 C8            -1.6023    -3.2113     1.3752 C.ar    
   9 C9            -2.5911    -2.6970     2.2063 C.ar    
  10 C10           -2.7509    -1.3216     2.3324 C.ar    
  11 C11           -1.9258    -0.4648     1.6388 C.ar    
  12 O12           -3.4019    -3.5389     2.8954 O.3     
  13 C13           -4.3963    -2.9429     3.7308 C.3     
  14 O14           -7.1604    -4.5733     4.8569 O.3     
  15 C15           -6.3133    -3.5281     5.3516 C.3     
  16 C16           -5.2072    -4.0413     4.4215 C.3     
  17 C17           -6.4248    -4.5299     3.6273 C.3     
  18 C18           -4.3440    -5.1567     5.0146 C.3     
  19 C19            1.5763     3.0578    -0.8700 C.3     
  20 C20            1.8670     2.0726     1.4238 C.3     
  21 C21            3.1105     0.0270     0.3877 C.3     
  22 C22            2.8198     1.0122    -1.9062 C.3     
  23 H23           -0.0108    -2.7594     0.0283 H       
  24 H24           -1.4806    -4.2801     1.2789 H       
  25 H25           -3.5203    -0.9249     2.9783 H       
  26 H26           -2.0476     0.6035     1.7406 H       
  27 H27           -3.9129    -2.3204     4.4837 H       
  28 H28           -5.0606    -2.3285     3.1232 H       
  29 H29           -6.6648    -2.5285     5.0957 H       
  30 H30           -6.0716    -3.6312     6.4095 H       
  31 H31           -6.2808    -5.5109     3.1743 H       
  32 H32           -6.8054    -3.7920     2.9211 H       
  33 H33           -3.7915    -4.7717     5.8717 H       
  34 H34           -4.9831    -5.9798     5.3342 H       
  35 H35           -3.6424    -5.5132     4.2604 H       
  36 H36            1.0042     3.8879    -0.4557 H       
  37 H37            2.6343     3.3193    -0.8888 H       
  38 H38            1.2349     2.8517    -1.8844 H       
  39 H39            1.7302     1.1730     2.0240 H       
  40 H40            2.9244     2.3362     1.4002 H       
  41 H41            1.2979     2.8922     1.8626 H       
  42 H42            3.5790    -0.8603    -0.0381 H       
  43 H43            3.8754     0.7717     0.6077 H       
  44 H44            2.5906    -0.2424     1.3071 H       
  45 H45            2.0954     1.4363    -2.6014 H       
  46 H46            3.5854     1.7548    -1.6813 H       
  47 H47            3.2852     0.1354    -2.3564 H       
@<TRIPOS>BOND
   1    1    2 1
   2    1    5 1
   3    2    3 1
   4    2    6 1
   5    3    4 1
   6    4    5 1
   7    4   21 1
   8    4   22 1
   9    5   19 1
  10    5   20 1
  11    6    7 ar
  12    6   11 ar
  13    7    8 ar
  14    7   23 1
  15    8    9 ar
  16    8   24 1
  17    9   10 ar
  18    9   12 1
  19   10   11 ar
  20   10   25 1
  21   11   26 1
  22   12   13 1
  23   13   16 1
  24   13   27 1
  25   13   28 1
  26   14   15 1
  27   14   17 1
  28   15   16 1
  29   15   29 1
  30   15   30 1
  31   16   17 1
  32   16   18 1
  33   17   31 1
  34   17   32 1
  35   18   33 1
  36   18   34 1
  37   18   35 1
  38   19   36 1
  39   19   37 1
  40   19   38 1
  41   20   39 1
  42   20   40 1
  43   20   41 1
  44   21   42 1
  45   21   43 1
  46   21   44 1
  47   22   45 1
  48   22   46 1
  49   22   47 1

#	End of record

