#	Name: ASD03082209
#	Creating user name:	WinNT
#	Creation time:	15. 06. 2019 20:27

#	Modifying user name:	WinNT
#	Modification time:	15. 06. 2019 20:27

#	Program:	/corina/corina34_cracker 3.40 0067  02.08.2006

@<TRIPOS>MOLECULE
ASD03082209
  45   48    0    0    0
SMALL
NO_CHARGES


@<TRIPOS>ATOM
   1 N1             0.1420     1.7977    -0.1729 N.pl3   
   2 N2            -0.0664     0.4097    -0.2155 N.2     
   3 C3             1.0868    -0.1592     0.0486 C.2     
   4 N4             2.0033     0.7890     0.2535 N.2     
   5 C5             1.4489     1.9783     0.1234 C.2     
   6 N6             1.3174    -1.5350     0.1062 N.pl3   
   7 C7             0.2477    -2.4288    -0.0088 C.ar    
   8 C8             0.4658    -3.7181    -0.4777 C.ar    
   9 C9            -0.5918    -4.5988    -0.5905 C.ar    
  10 C10           -1.8693    -4.1974    -0.2370 C.ar    
  11 C11           -2.0890    -2.9128     0.2306 C.ar    
  12 C12           -1.0331    -2.0304     0.3509 C.ar    
  13 C13           -0.3558    -5.9976    -1.0990 C.3     
  14 F14            1.0025    -6.1655    -1.3888 F       
  15 F15           -0.7416    -6.9206    -0.1211 F       
  16 F16           -1.1093    -6.2052    -2.2594 F       
  17 N17            4.1384     4.5192     0.3079 N.ar    
  18 C18            3.5233     3.3621     0.1747 C.ar    
  19 C19            2.1352     3.2793     0.2741 C.ar    
  20 C20            1.3995     4.4468     0.5184 C.ar    
  21 C21            2.0840     5.6379     0.6513 C.ar    
  22 C22            3.4721     5.6410     0.5393 C.ar    
  23 C23           -0.8570     2.8430    -0.4091 C.3     
  24 O24           -1.4954     3.1792     0.8244 O.3     
  25 F25           -2.9026    -5.0604    -0.3490 F       
  26 N26            4.1669     6.8352     0.6719 N.pl3   
  27 C27            3.4530     8.0616     1.0358 C.3     
  28 C28            4.1334     9.3952     0.7204 C.3     
  29 C29            4.0366     8.9093     2.1680 C.3     
  30 H30            2.2194    -1.8710     0.2260 H       
  31 H31            1.4617    -4.0313    -0.7541 H       
  32 H32           -3.0861    -2.6020     0.5056 H       
  33 H33           -1.2042    -1.0299     0.7198 H       
  34 H34            4.1001     2.4686    -0.0134 H       
  35 H35            0.3231     4.4153     0.6003 H       
  36 H36            1.5492     6.5570     0.8397 H       
  37 H37           -0.3680     3.7272    -0.8179 H       
  38 H38           -1.6022     2.4800    -1.1169 H       
  39 H39           -2.1705     3.8667     0.7432 H       
  40 H40            5.1253     6.8577     0.5236 H       
  41 H41            2.3674     8.0173     0.9480 H       
  42 H42            5.1123     9.3601     0.2422 H       
  43 H43            3.4955    10.2283     0.4255 H       
  44 H44            3.3349     9.4227     2.8254 H       
  45 H45            4.9517     8.5544     2.6420 H       
@<TRIPOS>BOND
   1    1    2 1
   2    1    5 1
   3    1   23 1
   4    2    3 2
   5    3    4 1
   6    3    6 1
   7    4    5 2
   8    5   19 1
   9    6    7 1
  10    6   30 1
  11    7    8 ar
  12    7   12 ar
  13    8    9 ar
  14    8   31 1
  15    9   10 ar
  16    9   13 1
  17   10   11 ar
  18   10   25 1
  19   11   12 ar
  20   11   32 1
  21   12   33 1
  22   13   14 1
  23   13   15 1
  24   13   16 1
  25   17   18 ar
  26   17   22 ar
  27   18   19 ar
  28   18   34 1
  29   19   20 ar
  30   20   21 ar
  31   20   35 1
  32   21   22 ar
  33   21   36 1
  34   22   26 1
  35   23   24 1
  36   23   37 1
  37   23   38 1
  38   24   39 1
  39   26   27 1
  40   26   40 1
  41   27   28 1
  42   27   29 1
  43   27   41 1
  44   28   29 1
  45   28   42 1
  46   28   43 1
  47   29   44 1
  48   29   45 1

#	End of record

