#	Name: ASD01900847
#	Creating user name:	WinNT
#	Creation time:	15. 06. 2019 19:52

#	Modifying user name:	WinNT
#	Modification time:	15. 06. 2019 19:52

#	Program:	/corina/corina34_cracker 3.40 0067  02.08.2006

@<TRIPOS>MOLECULE
ASD01900847
  29   30    0    0    0
SMALL
NO_CHARGES


@<TRIPOS>ATOM
   1 N1            -0.0176     1.3127     0.0346 N.ar    
   2 C2             0.0871     0.0004     0.0718 C.ar    
   3 C3            -0.7620    -0.8032    -0.6781 C.ar    
   4 C4            -1.7296    -0.2115    -1.4731 C.ar    
   5 C5            -1.8162     1.1722    -1.4916 C.ar    
   6 C6            -0.9322     1.9168    -0.7151 C.ar    
   7 C7            -1.0130     3.3958    -0.7249 C.2     
   8 O8            -1.8479     3.9542    -1.4091 O.2     
   9 N9            -0.1606     4.1223     0.0248 N.am    
  10 C10           -0.1717     5.5180    -0.0583 C.ar    
  11 C11           -1.3697     6.1936    -0.2466 C.ar    
  12 C12           -1.3766     7.5769    -0.3285 C.ar    
  13 C13           -0.1865     8.2836    -0.2222 C.ar    
  14 C14            1.0050     7.6096    -0.0348 C.ar    
  15 C15            1.0154     6.2308     0.0531 C.ar    
  16 O16           -2.5476     8.2413    -0.5133 O.3     
  17 C17           -2.4800     9.6667    -0.5884 C.3     
  18 F18            1.0327    -0.5715     0.8490 F       
  19 F19           -1.9451    10.1715     0.6017 F       
  20 F20           -1.6633    10.0389    -1.6616 F       
  21 H21           -0.6684    -1.8785    -0.6420 H       
  22 H22           -2.4015    -0.8146    -2.0658 H       
  23 H23           -2.5589     1.6659    -2.1007 H       
  24 H24            0.4606     3.6769     0.6220 H       
  25 H25           -2.2946     5.6421    -0.3295 H       
  26 H26           -0.1920     9.3617    -0.2864 H       
  27 H27            1.9295     8.1619     0.0473 H       
  28 H28            1.9475     5.7067     0.2045 H       
  29 H29           -3.4814    10.0706    -0.7368 H       
@<TRIPOS>BOND
   1    1    2 ar
   2    1    6 ar
   3    2    3 ar
   4    2   18 1
   5    3    4 ar
   6    3   21 1
   7    4    5 ar
   8    4   22 1
   9    5    6 ar
  10    5   23 1
  11    6    7 1
  12    7    8 2
  13    7    9 am
  14    9   10 1
  15    9   24 1
  16   10   11 ar
  17   10   15 ar
  18   11   12 ar
  19   11   25 1
  20   12   13 ar
  21   12   16 1
  22   13   14 ar
  23   13   26 1
  24   14   15 ar
  25   14   27 1
  26   15   28 1
  27   16   17 1
  28   17   19 1
  29   17   20 1
  30   17   29 1

#	End of record

