#	Name: ASD01810357
#	Creating user name:	WinNT
#	Creation time:	15. 06. 2019 19:24

#	Modifying user name:	WinNT
#	Modification time:	15. 06. 2019 19:24

#	Program:	/corina/corina34_cracker 3.40 0067  02.08.2006

@<TRIPOS>MOLECULE
ASD01810357
  45   47    0    0    0
SMALL
NO_CHARGES


@<TRIPOS>ATOM
   1 C1            -0.0173     1.4248     0.0099 C.3     
   2 O2             0.0021    -0.0041     0.0020 O.3     
   3 C3             0.6224    -0.6150     1.0359 C.ar    
   4 C4            -0.1013    -0.9465     2.1822 C.ar    
   5 C5             0.5111    -1.5788     3.2686 C.ar    
   6 C6             1.8636    -1.8942     3.2310 C.ar    
   7 C7             2.6424    -1.5550     2.0355 C.ar    
   8 C8             1.9979    -0.9201     0.9486 C.ar    
   9 C9             2.7417    -0.5946    -0.1966 C.ar    
  10 C10            4.0706    -0.8939    -0.2454 C.ar    
  11 C11            4.7020    -1.5186     0.8255 C.ar    
  12 C12            4.0058    -1.8523     1.9510 C.ar    
  13 C13            2.5027    -2.5555     4.3692 C.2     
  14 O14            1.8506    -2.8322     5.3547 O.2     
  15 C15           -1.5382    -0.6234     2.2492 C.2     
  16 O16           -2.0820    -0.0732     1.3110 O.2     
  17 N17           -2.2490    -0.9379     3.3502 N.am    
  18 C18           -3.6768    -0.6169     3.4168 C.3     
  19 C19           -4.4827    -1.7368     2.7555 C.3     
  20 C20           -5.9739    -1.4015     2.8250 C.3     
  21 C21           -6.3980    -1.2638     4.2886 C.3     
  22 C22           -5.5921    -0.1439     4.9499 C.3     
  23 C23           -4.1009    -0.4791     4.8804 C.3     
  24 O24           -3.3482     0.5668     5.4980 O.3     
  25 H25            1.0053     1.8021     0.0021 H       
  26 H26           -0.5445     1.7859    -0.8732 H       
  27 H27           -0.5275     1.7763     0.9067 H       
  28 H28           -0.0719    -1.8237     4.1441 H       
  29 H29            2.2634    -0.1099    -1.0348 H       
  30 H30            4.6411    -0.6431    -1.1274 H       
  31 H31            5.7559    -1.7462     0.7637 H       
  32 H32            4.5074    -2.3370     2.7755 H       
  33 H33            3.5546    -2.7974     4.3323 H       
  34 H34           -1.8152    -1.3768     4.0986 H       
  35 H35           -3.8629     0.3217     2.8947 H       
  36 H36           -4.1806    -1.8349     1.7128 H       
  37 H37           -4.2966    -2.6754     3.2776 H       
  38 H38           -6.1600    -0.4630     2.3029 H       
  39 H39           -6.5480    -2.1994     2.3539 H       
  40 H40           -7.4603    -1.0249     4.3381 H       
  41 H41           -6.2119    -2.2024     4.8107 H       
  42 H42           -5.7782     0.7947     4.4278 H       
  43 H43           -5.8943    -0.0457     5.9925 H       
  44 H44           -3.9148    -1.4177     5.4024 H       
  45 H45           -3.5653     0.7105     6.4293 H       
@<TRIPOS>BOND
   1    1    2 1
   2    1   25 1
   3    1   26 1
   4    1   27 1
   5    2    3 1
   6    3    4 ar
   7    3    8 ar
   8    4    5 ar
   9    4   15 1
  10    5    6 ar
  11    5   28 1
  12    6    7 ar
  13    6   13 1
  14    7    8 ar
  15    7   12 ar
  16    8    9 ar
  17    9   10 ar
  18    9   29 1
  19   10   11 ar
  20   10   30 1
  21   11   12 ar
  22   11   31 1
  23   12   32 1
  24   13   14 2
  25   13   33 1
  26   15   16 2
  27   15   17 am
  28   17   18 1
  29   17   34 1
  30   18   19 1
  31   18   23 1
  32   18   35 1
  33   19   20 1
  34   19   36 1
  35   19   37 1
  36   20   21 1
  37   20   38 1
  38   20   39 1
  39   21   22 1
  40   21   40 1
  41   21   41 1
  42   22   23 1
  43   22   42 1
  44   22   43 1
  45   23   24 1
  46   23   44 1
  47   24   45 1

#	End of record

