#	Name: ASD03640020
#	Creating user name:	WinNT
#	Creation time:	15. 06. 2019 20:43

#	Modifying user name:	WinNT
#	Modification time:	15. 06. 2019 20:43

#	Program:	/corina/corina34_cracker 3.40 0067  02.08.2006

@<TRIPOS>MOLECULE
ASD03640020
  16   17    0    0    0
SMALL
NO_CHARGES


@<TRIPOS>ATOM
   1 N1            -0.0158     1.3164     0.0093 N.ar    
   2 C2             0.0021    -0.0041     0.0020 C.ar    
   3 N3             1.1214    -0.6945    -0.0124 N.ar    
   4 C4             2.2992    -0.0696    -0.0203 C.ar    
   5 C5             2.3152     1.3403    -0.0128 C.ar    
   6 C6             1.1069     2.0187     0.0023 C.ar    
   7 C7             1.0713     3.5253     0.0103 C.3     
   8 N8             3.6446     1.7053    -0.0231 N.pl3   
   9 C9             4.3724     0.5651    -0.0360 C.2     
  10 N10            3.5836    -0.4729    -0.0343 N.2     
  11 H11           -0.9374    -0.5368     0.0085 H       
  12 H12            1.0723     3.8833     1.0398 H       
  13 H13            1.9476     3.9122    -0.5098 H       
  14 H14            0.1682     3.8700    -0.4934 H       
  15 H15            3.9930     2.6106    -0.0218 H       
  16 H16            5.4515     0.5210    -0.0467 H       
@<TRIPOS>BOND
   1    1    2 ar
   2    1    6 ar
   3    2    3 ar
   4    2   11 1
   5    3    4 ar
   6    4    5 ar
   7    4   10 1
   8    5    6 ar
   9    5    8 1
  10    6    7 1
  11    7   12 1
  12    7   13 1
  13    7   14 1
  14    8    9 1
  15    8   15 1
  16    9   10 2
  17    9   16 1

#	End of record

