#	Name: ASD05430677
#	Creating user name:	WinNT
#	Creation time:	15. 06. 2019 21:00

#	Modifying user name:	WinNT
#	Modification time:	15. 06. 2019 21:00

#	Program:	/corina/corina34_cracker 3.40 0067  02.08.2006

@<TRIPOS>MOLECULE
ASD05430677
  27   27    0    0    0
SMALL
NO_CHARGES


@<TRIPOS>ATOM
   1 C1            -0.0167     1.3781     0.0096 C.ar    
   2 C2             0.0021    -0.0041     0.0020 C.ar    
   3 C3            -1.1855    -0.7115     0.0095 C.ar    
   4 C4            -2.4105     1.3455     0.0438 C.ar    
   5 C5            -1.2230     2.0529     0.0305 C.ar    
   6 C6             1.2780     2.1493     0.0014 C.3     
   7 C7            -2.3919    -0.0367     0.0246 C.ar    
   8 C8             1.3352     3.0367    -1.2437 C.3     
   9 C9             1.3591     3.0232     1.2546 C.3     
  10 C10           -1.1651    -2.2183     0.0007 C.3     
  11 F11           -1.1460    -2.6921     1.3169 F       
  12 F12           -2.3073    -2.6964    -0.6505 F       
  13 F13           -0.0231    -2.6653    -0.6724 F       
  14 C14           -3.7256     2.0811     0.0666 C.3     
  15 F15           -4.1515     2.3157    -1.2452 F       
  16 F16           -4.6806     1.3083     0.7358 F       
  17 F17           -3.5654     3.3021     0.7304 F       
  18 H18            0.9446    -0.5313    -0.0101 H       
  19 H19           -1.2375     3.1327     0.0455 H       
  20 H20            2.1160     1.4524    -0.0103 H       
  21 H21           -3.3197    -0.5894     0.0350 H       
  22 H22            0.4972     3.7336    -1.2320 H       
  23 H23            2.2717     3.5944    -1.2496 H       
  24 H24            1.2775     2.4141    -2.1365 H       
  25 H25            1.3183     2.3911     2.1417 H       
  26 H26            2.2955     3.5810     1.2487 H       
  27 H27            0.5211     3.7202     1.2664 H       
@<TRIPOS>BOND
   1    1    2 ar
   2    1    6 1
   3    1    5 ar
   4    2    3 ar
   5    2   18 1
   6    3   10 1
   7    3    7 ar
   8    4    5 ar
   9    4   14 1
  10    4    7 ar
  11    5   19 1
  12    6    8 1
  13    6    9 1
  14    6   20 1
  15    7   21 1
  16    8   22 1
  17    8   23 1
  18    8   24 1
  19    9   25 1
  20    9   26 1
  21    9   27 1
  22   10   11 1
  23   10   12 1
  24   10   13 1
  25   14   15 1
  26   14   16 1
  27   14   17 1

#	End of record

