#	Name: ASD01140003
#	Creating user name:	WinNT
#	Creation time:	15. 06. 2019 18:59

#	Modifying user name:	WinNT
#	Modification time:	15. 06. 2019 18:59

#	Program:	/corina/corina34_cracker 3.40 0067  02.08.2006

@<TRIPOS>MOLECULE
ASD01140003
  22   23    0    0    0
SMALL
NO_CHARGES


@<TRIPOS>ATOM
   1 N1            -0.9922     0.0554    -1.0109 N.pl3   
   2 N2             0.0037    -0.0013    -0.0222 N.2     
   3 C3             0.8847    -0.8811    -0.4228 C.2     
   4 N4             0.5002    -1.3761    -1.5987 N.2     
   5 C5            -0.6274    -0.8228    -1.9665 C.2     
   6 C6            -2.1320     0.8548    -1.0028 C.2     
   7 C7            -2.3632     1.6781     0.0234 C.2     
   8 C8            -3.4987     2.6202    -0.0273 C.ar    
   9 C9            -3.2777     3.9935     0.1085 C.ar    
  10 C10           -4.3440     4.8686     0.0601 C.ar    
  11 C11           -5.6299     4.3880    -0.1220 C.ar    
  12 C12           -5.8547     3.0284    -0.2567 C.ar    
  13 C13           -4.7970     2.1436    -0.2169 C.ar    
  14 Cl14          -6.9659     5.4949    -0.1812 Cl      
  15 Cl15          -1.6663     4.5971     0.3381 Cl      
  16 Cl16          -1.3285     1.6401     1.4168 Cl      
  17 H17            1.7795    -1.1613     0.1132 H       
  18 H18           -1.1708    -1.0333    -2.8758 H       
  19 H19           -2.8293     0.8093    -1.8263 H       
  20 H20           -4.1752     5.9302     0.1649 H       
  21 H21           -6.8601     2.6601    -0.3978 H       
  22 H22           -4.9737     1.0839    -0.3269 H       
@<TRIPOS>BOND
   1    1    2 1
   2    1    5 1
   3    1    6 1
   4    2    3 2
   5    3    4 1
   6    3   17 1
   7    4    5 2
   8    5   18 1
   9    6    7 2
  10    6   19 1
  11    7    8 1
  12    7   16 1
  13    8    9 ar
  14    8   13 ar
  15    9   10 ar
  16    9   15 1
  17   10   11 ar
  18   10   20 1
  19   11   12 ar
  20   11   14 1
  21   12   13 ar
  22   12   21 1
  23   13   22 1

#	End of record

