#	Name: ASD01914067
#	Creating user name:	WinNT
#	Creation time:	15. 06. 2019 20:02

#	Modifying user name:	WinNT
#	Modification time:	15. 06. 2019 20:02

#	Program:	/corina/corina34_cracker 3.40 0067  02.08.2006

@<TRIPOS>MOLECULE
ASD01914067
  39   40    0    0    0
SMALL
NO_CHARGES


@<TRIPOS>ATOM
   1 C1            -0.0167     1.3777     0.0096 C.ar    
   2 C2             0.0021    -0.0041     0.0020 C.ar    
   3 C3            -1.1984    -0.7172     0.0101 C.ar    
   4 C4            -2.4204     1.3550     0.0440 C.ar    
   5 C5            -1.2234     2.0572     0.0306 C.ar    
   6 O6            -3.6014     2.0272     0.0645 O.3     
   7 C7            -3.5355     3.4546     0.0712 C.3     
   8 C8            -4.9315     4.0218     0.0942 C.ar    
   9 N9            -5.1002     5.3302     0.1036 N.ar    
  10 C10           -6.2981     5.8770     0.1237 C.ar    
  11 C11           -7.4423     5.0787     0.1364 C.ar    
  12 C12           -7.2955     3.6862     0.1268 C.ar    
  13 C13           -6.0154     3.1620     0.0995 C.ar    
  14 C14           -8.7869     5.6926     0.1599 C.2     
  15 N15           -8.9151     7.0343     0.1693 N.am    
  16 O16           -9.7769     4.9874     0.1708 O.2     
  17 C17           -2.4127    -0.0298     0.0259 C.ar    
  18 C18          -10.2476     7.6427     0.1927 C.3     
  19 F19            1.1450     2.0674     0.0022 F       
  20 C20           -1.1835    -2.1491     0.0018 C.1     
  21 N21           -1.1717    -3.2850    -0.0048 N.1     
  22 C22          -10.1594     9.0403     0.8089 C.3     
  23 C23          -10.7852     7.7481    -1.2359 C.3     
  24 H24            0.9443    -0.5318    -0.0105 H       
  25 H25           -1.2327     3.1370     0.0451 H       
  26 H26           -2.9928     3.7892     0.9553 H       
  27 H27           -3.0183     3.7986    -0.8245 H       
  28 H28           -6.3956     6.9525     0.1309 H       
  29 H29           -8.1594     3.0381     0.1362 H       
  30 H30           -5.8636     2.0927     0.0915 H       
  31 H31           -8.1251     7.5970     0.1607 H       
  32 H32           -3.3441    -0.5764     0.0322 H       
  33 H33          -10.9189     7.0245     0.7888 H       
  34 H34           -9.4881     9.6585     0.2128 H       
  35 H35          -11.1508     9.4930     0.8262 H       
  36 H36           -9.7764     8.9651     1.8266 H       
  37 H37          -10.1139     8.3663    -1.8320 H       
  38 H38          -10.8480     6.7524    -1.6749 H       
  39 H39          -11.7766     8.2008    -1.2185 H       
@<TRIPOS>BOND
   1    1    2 ar
   2    1   19 1
   3    1    5 ar
   4    2    3 ar
   5    2   24 1
   6    3   17 ar
   7    3   20 1
   8    4    5 ar
   9    4    6 1
  10    4   17 ar
  11    5   25 1
  12    6    7 1
  13    7    8 1
  14    7   26 1
  15    7   27 1
  16    8    9 ar
  17    8   13 ar
  18    9   10 ar
  19   10   11 ar
  20   10   28 1
  21   11   12 ar
  22   11   14 1
  23   12   13 ar
  24   12   29 1
  25   13   30 1
  26   14   15 am
  27   14   16 2
  28   15   18 1
  29   15   31 1
  30   17   32 1
  31   18   22 1
  32   18   23 1
  33   18   33 1
  34   20   21 3
  35   22   34 1
  36   22   35 1
  37   22   36 1
  38   23   37 1
  39   23   38 1
  40   23   39 1

#	End of record

