#	Name: ASD07730014
#	Creating user name:	WinNT
#	Creation time:	15. 06. 2019 21:11

#	Modifying user name:	WinNT
#	Modification time:	15. 06. 2019 21:11

#	Program:	/corina/corina34_cracker 3.40 0067  02.08.2006

@<TRIPOS>MOLECULE
ASD07730014
  40   42    0    0    0
SMALL
NO_CHARGES


@<TRIPOS>ATOM
   1 C1            -0.6438     1.3886     0.0325 C.3     
   2 C2            -0.6059    -0.1415    -0.0592 C.3     
   3 C3             0.2357    -0.5305    -1.2729 C.3     
   4 C4             1.5656     0.1763    -1.2440 C.ar    
   5 C5             1.7980     1.2864    -0.4637 C.ar    
   6 C6             0.7450     1.8815     0.4340 C.3     
   7 C7             2.5833    -0.3274    -2.0441 C.ar    
   8 C8             3.8230     0.2769    -2.0648 C.ar    
   9 C9             4.0554     1.3940    -1.2839 C.ar    
  10 C10            3.0464     1.8953    -0.4881 C.ar    
  11 C11            0.4643    -2.0200    -1.2624 C.2     
  12 O12            0.6433    -2.5987    -0.2115 O.2     
  13 N13            0.4698    -2.7091    -2.4206 N.am    
  14 C14            0.7830    -4.0749    -2.4218 C.ar    
  15 C15            0.4261    -4.8723    -3.5067 C.ar    
  16 C16            0.7384    -6.2222    -3.5024 C.ar    
  17 C17            1.4025    -6.7748    -2.4231 C.ar    
  18 C18            1.7570    -5.9838    -1.3458 C.ar    
  19 C19            1.4543    -4.6354    -1.3449 C.ar    
  20 O20           -0.2275    -4.3274    -4.5673 O.3     
  21 C21           -0.5617    -5.2053    -5.6441 C.3     
  22 H22           -0.9164     1.8078    -0.9360 H       
  23 H23           -1.3728     1.6934     0.7833 H       
  24 H24           -0.1575    -0.5524     0.8454 H       
  25 H25           -1.6185    -0.5275    -0.1756 H       
  26 H26           -0.2976    -0.2557    -2.1830 H       
  27 H27            0.7774     2.9681     0.3549 H       
  28 H28            0.9455     1.5906     1.4651 H       
  29 H29            2.4025    -1.1997    -2.6547 H       
  30 H30            4.6094    -0.1209    -2.6891 H       
  31 H31            5.0234     1.8727    -1.2972 H       
  32 H32            3.2284     2.7682     0.1211 H       
  33 H33            0.2569    -2.2597    -3.2534 H       
  34 H34            0.4626    -6.8429    -4.3421 H       
  35 H35            1.6447    -7.8273    -2.4213 H       
  36 H36            2.2754    -6.4201    -0.5048 H       
  37 H37            1.7324    -4.0199    -0.5022 H       
  38 H38            0.3495    -5.6410    -6.0540 H       
  39 H39           -1.2111    -6.0000    -5.2768 H       
  40 H40           -1.0786    -4.6446    -6.4230 H       
@<TRIPOS>BOND
   1    1    2 1
   2    1    6 1
   3    1   22 1
   4    1   23 1
   5    2    3 1
   6    2   24 1
   7    2   25 1
   8    3    4 1
   9    3   11 1
  10    3   26 1
  11    4    5 ar
  12    4    7 ar
  13    5    6 1
  14    5   10 ar
  15    6   27 1
  16    6   28 1
  17    7    8 ar
  18    7   29 1
  19    8    9 ar
  20    8   30 1
  21    9   10 ar
  22    9   31 1
  23   10   32 1
  24   11   12 2
  25   11   13 am
  26   13   14 1
  27   13   33 1
  28   14   15 ar
  29   14   19 ar
  30   15   16 ar
  31   15   20 1
  32   16   17 ar
  33   16   34 1
  34   17   18 ar
  35   17   35 1
  36   18   19 ar
  37   18   36 1
  38   19   37 1
  39   20   21 1
  40   21   38 1
  41   21   39 1
  42   21   40 1

#	End of record

