#	Name: ASD03240940
#	Creating user name:	WinNT
#	Creation time:	15. 06. 2019 20:35

#	Modifying user name:	WinNT
#	Modification time:	15. 06. 2019 20:35

#	Program:	/corina/corina34_cracker 3.40 0067  02.08.2006

@<TRIPOS>MOLECULE
ASD03240940
  66   72    0    0    0
SMALL
NO_CHARGES


@<TRIPOS>ATOM
   1 N1            -0.0162     1.3427     0.0094 N.am    
   2 C2             0.0021    -0.0041     0.0020 C.2     
   3 N3             1.2464    -0.4977    -0.0125 N.am    
   4 C4             2.1708     0.4852    -0.0160 C.2     
   5 C5             1.3863     1.7763    -0.0016 C.3     
   6 C6             1.6835     2.5960    -1.2534 C.3     
   7 C7             0.8972     3.9090    -1.1981 C.3     
   8 N8             1.2668     4.6496     0.0148 N.3     
   9 C9             0.9203     3.8960     1.2267 C.3     
  10 C10            1.7075     2.5826     1.2530 C.3     
  11 O11           -0.9987    -0.6937     0.0082 O.2     
  12 O12            3.3765     0.3590    -0.0278 O.2     
  13 C13            0.6470     5.9814     0.0279 C.3     
  14 C14            0.8422     6.6131     1.3821 C.ar    
  15 C15            1.9634     7.3857     1.6267 C.ar    
  16 C16            2.1475     7.9671     2.8644 C.ar    
  17 C17            1.2003     7.7744     3.8700 C.ar    
  18 C18            0.0719     6.9943     3.6172 C.ar    
  19 C19           -0.1035     6.4226     2.3738 C.ar    
  20 N20            4.1160     9.1728     7.3879 N.pl3   
  21 C21            4.3150     9.7427     8.6162 C.2     
  22 N22            3.2951    10.2032     9.3620 N.2     
  23 C23            2.0531    10.1336     8.9575 C.2     
  24 C24            1.7629     9.5374     7.6552 C.ar    
  25 C25            0.4554     9.4339     7.1685 C.ar    
  26 C26            0.2697     8.8525     5.9187 C.ar    
  27 C27            1.3921     8.3952     5.2008 C.ar    
  28 N28            2.6157     8.5098     5.6945 N.ar    
  29 C29            2.8374     9.0564     6.8773 C.ar    
  30 C30            5.6830     9.7179     8.8516 C.2     
  31 C31            6.2909     9.1278     7.7506 C.2     
  32 N32            5.3661     8.7973     6.8815 N.2     
  33 C33           -1.0925     8.7145     5.3498 C.ar    
  34 C34           -2.1156     8.1533     6.1124 C.ar    
  35 C35           -3.3817     8.0278     5.5778 C.ar    
  36 C36           -3.6364     8.4577     4.2880 C.ar    
  37 C37           -2.6250     9.0150     3.5264 C.ar    
  38 C38           -1.3564     9.1508     4.0525 C.ar    
  39 C39            7.7712     8.8994     7.5847 C.3     
  40 H40           -0.8007     1.9131     0.0164 H       
  41 H41            1.4573    -1.4445    -0.0193 H       
  42 H42            2.7507     2.8128    -1.3013 H       
  43 H43            1.3866     2.0311    -2.1370 H       
  44 H44            1.1317     4.5102    -2.0766 H       
  45 H45           -0.1709     3.6924    -1.1804 H       
  46 H46            1.1716     4.4879     2.1069 H       
  47 H47           -0.1479     3.6796     1.2271 H       
  48 H48            1.4274     2.0082     2.1360 H       
  49 H49            2.7753     2.7989     1.2828 H       
  50 H50            1.1121     6.6060    -0.7348 H       
  51 H51           -0.4190     5.8881    -0.1793 H       
  52 H52            2.6963     7.5339     0.8473 H       
  53 H53            3.0234     8.5698     3.0542 H       
  54 H54           -0.6648     6.8412     4.3920 H       
  55 H55           -0.9787     5.8217     2.1755 H       
  56 H56            1.2534    10.5112     9.5773 H       
  57 H57           -0.3836     9.7945     7.7451 H       
  58 H58            6.1846    10.0907     9.7324 H       
  59 H59           -1.9177     7.8170     7.1195 H       
  60 H60           -4.1750     7.5928     6.1676 H       
  61 H61           -4.6288     8.3575     3.8737 H       
  62 H62           -2.8295     9.3482     2.5197 H       
  63 H63           -0.5686     9.5901     3.4586 H       
  64 H64            8.0355     7.9218     7.9879 H       
  65 H65            8.0282     8.9374     6.5261 H       
  66 H66            8.3206     9.6739     8.1199 H       
@<TRIPOS>BOND
   1    1    2 am
   2    1    5 1
   3    1   40 1
   4    2    3 am
   5    2   11 2
   6    3    4 am
   7    3   41 1
   8    4    5 1
   9    4   12 2
  10    5    6 1
  11    5   10 1
  12    6    7 1
  13    6   42 1
  14    6   43 1
  15    7    8 1
  16    7   44 1
  17    7   45 1
  18    8    9 1
  19    8   13 1
  20    9   10 1
  21    9   46 1
  22    9   47 1
  23   10   48 1
  24   10   49 1
  25   13   14 1
  26   13   50 1
  27   13   51 1
  28   14   15 ar
  29   14   19 ar
  30   15   16 ar
  31   15   52 1
  32   16   17 ar
  33   16   53 1
  34   17   18 ar
  35   17   27 1
  36   18   19 ar
  37   18   54 1
  38   19   55 1
  39   20   21 1
  40   20   29 1
  41   20   32 1
  42   21   22 1
  43   21   30 2
  44   22   23 2
  45   23   24 1
  46   23   56 1
  47   24   25 ar
  48   24   29 ar
  49   25   26 ar
  50   25   57 1
  51   26   27 ar
  52   26   33 1
  53   27   28 ar
  54   28   29 ar
  55   30   31 1
  56   30   58 1
  57   31   32 2
  58   31   39 1
  59   33   34 ar
  60   33   38 ar
  61   34   35 ar
  62   34   59 1
  63   35   36 ar
  64   35   60 1
  65   36   37 ar
  66   36   61 1
  67   37   38 ar
  68   37   62 1
  69   38   63 1
  70   39   64 1
  71   39   65 1
  72   39   66 1

#	End of record

