#	Name: ASD01814291
#	Creating user name:	WinNT
#	Creation time:	15. 06. 2019 19:32

#	Modifying user name:	WinNT
#	Modification time:	15. 06. 2019 19:32

#	Program:	/corina/corina34_cracker 3.40 0067  02.08.2006

@<TRIPOS>MOLECULE
ASD01814291
  46   50    0    0    0
SMALL
NO_CHARGES


@<TRIPOS>ATOM
   1 C1            -0.0168     1.3869     0.0097 C.ar    
   2 C2             0.0021    -0.0041     0.0020 C.ar    
   3 C3             1.1801    -0.6897    -0.0129 C.ar    
   4 C4             2.3948     0.0129    -0.0208 C.ar    
   5 C5             2.3717     1.4289    -0.0130 C.ar    
   6 C6             1.1455     2.1014     0.0024 C.ar    
   7 C7             3.6294    -0.6695    -0.0367 C.ar    
   8 C8             4.8032     0.0061    -0.0444 C.ar    
   9 C9             4.8361     1.4094    -0.0372 C.ar    
  10 C10            3.6406     2.1511    -0.0213 C.ar    
  11 C11            6.1027     2.1517    -0.0449 C.2     
  12 N12            6.0338     3.5032    -0.0365 N.am    
  13 C13            4.8295     4.1317    -0.0212 C.2     
  14 N14            3.6956     3.4935    -0.0142 N.2     
  15 C15            3.6423    -2.1764    -0.0449 C.3     
  16 C16            3.5087    -2.6722    -1.4617 C.ar    
  17 C17            4.6399    -2.8884    -2.2268 C.ar    
  18 C18            4.5201    -3.3429    -3.5259 C.ar    
  19 C19            3.2635    -3.5824    -4.0626 C.ar    
  20 C20            2.1300    -3.3647    -3.2928 C.ar    
  21 C21            2.2554    -2.9156    -1.9925 C.ar    
  22 O22            7.1744     1.5734    -0.0578 O.2     
  23 C23            7.2122     4.2592    -0.0432 C.2     
  24 N24            7.2790     5.5692    -0.0364 N.2     
  25 N25            8.6425     5.9050    -0.0464 N.pl3   
  26 C26            9.3205     4.7445    -0.0589 C.2     
  27 N27            8.4536     3.7648    -0.0519 N.2     
  28 O28            3.1430    -4.0291    -5.3404 O.3     
  29 C29            1.8183    -4.2542    -5.8268 C.3     
  30 H30           -0.9630     1.9075     0.0170 H       
  31 H31           -0.9305    -0.5488     0.0084 H       
  32 H32            1.1786    -1.7697    -0.0184 H       
  33 H33            1.1188     3.1811     0.0081 H       
  34 H34            5.7316    -0.5455    -0.0559 H       
  35 H35            4.8124     5.2116    -0.0145 H       
  36 H36            4.5811    -2.5339     0.3782 H       
  37 H37            2.8096    -2.5501     0.5509 H       
  38 H38            5.6180    -2.7014    -1.8087 H       
  39 H39            5.4040    -3.5113    -4.1232 H       
  40 H40            1.1506    -3.5504    -3.7084 H       
  41 H41            1.3734    -2.7463    -1.3927 H       
  42 H42            9.0205     6.7984    -0.0446 H       
  43 H43           10.3953     4.6390    -0.0689 H       
  44 H44            1.3261    -5.0036    -5.2069 H       
  45 H45            1.2537    -3.3226    -5.7877 H       
  46 H46            1.8646    -4.6081    -6.8567 H       
@<TRIPOS>BOND
   1    1    2 ar
   2    1    6 ar
   3    1   30 1
   4    2    3 ar
   5    2   31 1
   6    3    4 ar
   7    3   32 1
   8    4    5 ar
   9    4    7 ar
  10    5    6 ar
  11    5   10 ar
  12    6   33 1
  13    7    8 ar
  14    7   15 1
  15    8    9 ar
  16    8   34 1
  17    9   10 ar
  18    9   11 1
  19   10   14 1
  20   11   12 am
  21   11   22 2
  22   12   13 1
  23   12   23 1
  24   13   14 2
  25   13   35 1
  26   15   16 1
  27   15   36 1
  28   15   37 1
  29   16   17 ar
  30   16   21 ar
  31   17   18 ar
  32   17   38 1
  33   18   19 ar
  34   18   39 1
  35   19   20 ar
  36   19   28 1
  37   20   21 ar
  38   20   40 1
  39   21   41 1
  40   23   24 2
  41   23   27 1
  42   24   25 1
  43   25   26 1
  44   25   42 1
  45   26   27 2
  46   26   43 1
  47   28   29 1
  48   29   44 1
  49   29   45 1
  50   29   46 1

#	End of record

