#	Name: ASD00061020
#	Creating user name:	WinNT
#	Creation time:	15. 06. 2019 18:29

#	Modifying user name:	WinNT
#	Modification time:	15. 06. 2019 18:29

#	Program:	/corina/corina34_cracker 3.40 0067  02.08.2006

@<TRIPOS>MOLECULE
ASD00061020
  39   40    0    0    0
SMALL
NO_CHARGES


@<TRIPOS>ATOM
   1 C1            -0.4191     3.8812    -0.3628 C.ar    
   2 C2            -0.9244     2.5947    -0.4609 C.ar    
   3 C3            -0.0677     1.5056    -0.4726 C.ar    
   4 C4             1.2946     1.6954    -0.3862 C.ar    
   5 C5             1.8119     2.9914    -0.2869 C.ar    
   6 C6             0.9409     4.0862    -0.2761 C.ar    
   7 Cl7           -2.6391     2.3460    -0.5691 Cl      
   8 C8             3.2647     3.2021    -0.1938 C.2     
   9 C9             3.8181     4.5997    -0.0870 C.3     
  10 O10            4.0170     2.2511    -0.2030 O.2     
  11 C11            5.3291     4.5336     0.1443 C.3     
  12 C12            5.9026     5.9270     0.1186 C.ar    
  13 C13            5.6093     3.8917     1.5046 C.3     
  14 C14            6.8650     6.2612    -0.8157 C.ar    
  15 C15            7.3911     7.5393    -0.8392 C.ar    
  16 C16            6.9545     8.4833     0.0714 C.ar    
  17 C17            5.9915     8.1493     1.0052 C.ar    
  18 C18            5.4623     6.8724     1.0259 C.ar    
  19 C19            7.0907     3.9231     1.7793 C.2     
  20 O20            7.5083     4.4549     2.7806 O.2     
  21 O21            7.9463     3.3602     0.9115 O.3     
  22 C22            4.8826     4.6570     2.5804 C.2     
  23 O23            5.4697     5.4876     3.2324 O.2     
  24 O24            3.5830     4.4158     2.8142 O.3     
  25 H25           -1.0925     4.7256    -0.3588 H       
  26 H26           -0.4685     0.5057    -0.5493 H       
  27 H27            1.9611     0.8457    -0.3947 H       
  28 H28            1.3334     5.0894    -0.2000 H       
  29 H29            3.6152     5.1423    -1.0102 H       
  30 H30            3.3448     5.1150     0.7489 H       
  31 H31            5.7911     3.9360    -0.6415 H       
  32 H32            5.2630     2.8582     1.4969 H       
  33 H33            7.2060     5.5237    -1.5272 H       
  34 H34            8.1435     7.8002    -1.5688 H       
  35 H35            7.3661     9.4816     0.0535 H       
  36 H36            5.6507     8.8867     1.7168 H       
  37 H37            4.7099     6.6115     1.7554 H       
  38 H38            8.8900     3.4701     1.0916 H       
  39 H39            3.1598     4.9315     3.5142 H       
@<TRIPOS>BOND
   1    1    2 ar
   2    1    6 ar
   3    1   25 1
   4    2    3 ar
   5    2    7 1
   6    3    4 ar
   7    3   26 1
   8    4    5 ar
   9    4   27 1
  10    5    6 ar
  11    5    8 1
  12    6   28 1
  13    8    9 1
  14    8   10 2
  15    9   11 1
  16    9   29 1
  17    9   30 1
  18   11   12 1
  19   11   13 1
  20   11   31 1
  21   12   14 ar
  22   12   18 ar
  23   13   19 1
  24   13   22 1
  25   13   32 1
  26   14   15 ar
  27   14   33 1
  28   15   16 ar
  29   15   34 1
  30   16   17 ar
  31   16   35 1
  32   17   18 ar
  33   17   36 1
  34   18   37 1
  35   19   20 2
  36   19   21 1
  37   21   38 1
  38   22   23 2
  39   22   24 1
  40   24   39 1

#	End of record

