#	Name: ASD01880668
#	Creating user name:	WinNT
#	Creation time:	15. 06. 2019 19:41

#	Modifying user name:	WinNT
#	Modification time:	15. 06. 2019 19:41

#	Program:	/corina/corina34_cracker 3.40 0067  02.08.2006

@<TRIPOS>MOLECULE
ASD01880668
  42   44    0    0    0
SMALL
NO_CHARGES


@<TRIPOS>ATOM
   1 N1            -0.0158     1.3115     0.0093 N.ar    
   2 C2             0.0021    -0.0041     0.0020 C.ar    
   3 N3             1.1309    -0.6861    -0.0124 N.ar    
   4 C4             2.3010    -0.0695    -0.0203 C.ar    
   5 C5             2.3346     1.3162    -0.0132 C.ar    
   6 C6             1.1204     2.0073     0.0021 C.ar    
   7 C7             3.6464     2.0579    -0.0212 C.3     
   8 O8             4.7240     1.1196    -0.0361 O.3     
   9 C9             5.9827     1.6270    -0.0449 C.ar    
  10 C10            7.0780     0.7689    -0.0596 C.ar    
  11 C11            8.3506     1.2835    -0.0690 C.ar    
  12 C12            8.5546     2.6674    -0.0639 C.ar    
  13 C13            7.4510     3.5248    -0.0496 C.ar    
  14 C14            6.1764     3.0033    -0.0451 C.ar    
  15 C15            9.7201     0.6514    -0.0850 C.3     
  16 N16           10.6826     1.7590    -0.0885 N.am    
  17 C17           10.0059     2.9202    -0.0762 C.2     
  18 O18           10.5186     4.0226    -0.0758 O.2     
  19 C19           -1.3054    -0.7534     0.0110 C.3     
  20 C20           14.1588     1.4375    -1.5643 C.3     
  21 C21           12.6356     1.5809    -1.5497 C.3     
  22 C22           12.1411     1.6217    -0.1025 C.3     
  23 C23            1.0975     3.4391     0.0100 C.1     
  24 N24            1.0793     4.5749     0.0163 N.1     
  25 H25            3.2188    -0.6386    -0.0317 H       
  26 H26            3.7016     2.6888    -0.9084 H       
  27 H27            3.7179     2.6793     0.8715 H       
  28 H28            6.9271    -0.3005    -0.0632 H       
  29 H29            7.5975     4.5948    -0.0451 H       
  30 H30            5.3240     3.6664    -0.0344 H       
  31 H31            9.8595     0.0366     0.8042 H       
  32 H32            9.8427     0.0457    -0.9829 H       
  33 H33           -1.6308    -0.9286    -1.0144 H       
  34 H34           -1.1730    -1.7090     0.5184 H       
  35 H35           -2.0580    -0.1647     0.5355 H       
  36 H36           14.5112     1.4084    -2.5954 H       
  37 H37           14.6087     2.2870    -1.0505 H       
  38 H38           14.4418     0.5149    -1.0575 H       
  39 H39           12.3526     2.5034    -2.0566 H       
  40 H40           12.1858     0.7313    -2.0636 H       
  41 H41           12.5909     2.4712     0.4114 H       
  42 H42           12.4240     0.6991     0.4044 H       
@<TRIPOS>BOND
   1    1    2 ar
   2    1    6 ar
   3    2    3 ar
   4    2   19 1
   5    3    4 ar
   6    4    5 ar
   7    4   25 1
   8    5    6 ar
   9    5    7 1
  10    6   23 1
  11    7    8 1
  12    7   26 1
  13    7   27 1
  14    8    9 1
  15    9   10 ar
  16    9   14 ar
  17   10   11 ar
  18   10   28 1
  19   11   12 ar
  20   11   15 1
  21   12   13 ar
  22   12   17 1
  23   13   14 ar
  24   13   29 1
  25   14   30 1
  26   15   16 1
  27   15   31 1
  28   15   32 1
  29   16   17 am
  30   16   22 1
  31   17   18 2
  32   19   33 1
  33   19   34 1
  34   19   35 1
  35   20   21 1
  36   20   36 1
  37   20   37 1
  38   20   38 1
  39   21   22 1
  40   21   39 1
  41   21   40 1
  42   22   41 1
  43   22   42 1
  44   23   24 3

#	End of record

