#	Name: ASD01870292
#	Creating user name:	WinNT
#	Creation time:	15. 06. 2019 19:38

#	Modifying user name:	WinNT
#	Modification time:	15. 06. 2019 19:38

#	Program:	/corina/corina34_cracker 3.40 0067  02.08.2006

@<TRIPOS>MOLECULE
ASD01870292
  34   36    0    0    0
SMALL
NO_CHARGES


@<TRIPOS>ATOM
   1 N1             0.1138     1.3745    -0.6733 N.2     
   2 C2             0.1561     0.0569    -0.8127 C.2     
   3 C3             1.3592    -0.5068    -0.6027 C.2     
   4 S4             2.5031     0.7710    -0.1978 S.3     
   5 C5             1.2214     1.9686    -0.3540 C.2     
   6 N6             1.3731     3.3357    -0.1648 N.am    
   7 C7             0.2234     4.2294    -0.3253 C.3     
   8 C8             2.5780     3.8405     0.1665 C.2     
   9 C9             2.7636     5.3020     0.2683 C.ar    
  10 O10            3.5121     3.0927     0.3817 O.2     
  11 C11            1.7231     6.1100     0.7324 C.ar    
  12 C12            3.9821     5.8807    -0.0937 C.ar    
  13 C13            4.1500     7.2453     0.0037 C.ar    
  14 C14            3.1121     8.0432     0.4605 C.ar    
  15 C15            1.9019     7.4735     0.8258 C.ar    
  16 F16            3.2824     9.3801     0.5548 F       
  17 C17           -1.0408    -0.7408    -1.1749 C.ar    
  18 C18           -2.2738    -0.1163    -1.3849 C.ar    
  19 C19           -3.3601    -0.9051    -1.7214 C.ar    
  20 C20           -3.1928    -2.2732    -1.8381 C.ar    
  21 N21           -2.0167    -2.8343    -1.6339 N.ar    
  22 C22           -0.9532    -2.1243    -1.3170 C.ar    
  23 H23            1.5851    -1.5608    -0.6702 H       
  24 H24           -0.2698     4.3635     0.6374 H       
  25 H25            0.5637     5.1959    -0.6970 H       
  26 H26           -0.4790     3.7937    -1.0359 H       
  27 H27            0.7801     5.6673     1.0172 H       
  28 H28            4.7914     5.2600    -0.4490 H       
  29 H29            5.0919     7.6938    -0.2760 H       
  30 H30            1.0980     8.0993     1.1842 H       
  31 H31           -2.3762     0.9543    -1.2867 H       
  32 H32           -4.3282    -0.4572    -1.8908 H       
  33 H33           -4.0384    -2.8917    -2.1002 H       
  34 H34           -0.0060    -2.6194    -1.1617 H       
@<TRIPOS>BOND
   1    1    2 1
   2    1    5 2
   3    2    3 2
   4    2   17 1
   5    3    4 1
   6    3   23 1
   7    4    5 1
   8    5    6 1
   9    6    7 1
  10    6    8 am
  11    7   24 1
  12    7   25 1
  13    7   26 1
  14    8    9 1
  15    8   10 2
  16    9   12 ar
  17    9   11 ar
  18   11   15 ar
  19   11   27 1
  20   12   13 ar
  21   12   28 1
  22   13   14 ar
  23   13   29 1
  24   14   15 ar
  25   14   16 1
  26   15   30 1
  27   17   18 ar
  28   17   22 ar
  29   18   19 ar
  30   18   31 1
  31   19   20 ar
  32   19   32 1
  33   20   21 ar
  34   20   33 1
  35   21   22 ar
  36   22   34 1

#	End of record

