#	Name: ASD08150258
#	Creating user name:	WinNT
#	Creation time:	15. 06. 2019 21:15

#	Modifying user name:	WinNT
#	Modification time:	15. 06. 2019 21:15

#	Program:	/corina/corina34_cracker 3.40 0067  02.08.2006

@<TRIPOS>MOLECULE
ASD08150258
  64   68    0    0    0
SMALL
NO_CHARGES


@<TRIPOS>ATOM
   1 N1            -0.0157     1.2954    -0.0517 N.2     
   2 C2             0.0018    -0.0026    -0.0878 C.2     
   3 N3             1.1480    -0.7344    -0.1047 N.am    
   4 C4             2.3555    -0.1235    -0.0845 C.2     
   5 C5             2.3701     1.3459    -0.0440 C.ar    
   6 C6             3.5601     2.0707    -0.0203 C.ar    
   7 C7             3.5160     3.4469     0.0178 C.ar    
   8 C8             2.2980     4.1145     0.0332 C.ar    
   9 C9             1.1112     3.4174     0.0103 C.ar    
  10 C10            1.1295     2.0215    -0.0285 C.ar    
  11 O11            3.3896    -0.7659    -0.0989 O.2     
  12 C12           -1.3149    -0.7353    -0.1116 C.3     
  13 S13           -2.6721     0.4619    -0.0818 S.3     
  14 N14           -5.9169     1.0958    -0.0727 N.2     
  15 C15           -7.2142     0.9916    -0.0789 C.2     
  16 N16           -7.5755    -0.3224    -0.1158 N.pl3   
  17 C17           -6.4224    -1.0656    -0.1331 C.ar    
  18 N18           -6.1436    -2.3648    -0.1683 N.ar    
  19 C19           -4.8954    -2.7835    -0.1769 C.ar    
  20 N20           -3.8691    -1.9534    -0.1521 N.ar    
  21 C21           -4.0496    -0.6363    -0.1159 C.ar    
  22 C22           -5.3651    -0.1408    -0.1051 C.ar    
  23 C23            4.8857     1.3540    -0.0358 C.3     
  24 C24            1.0782    -2.1341    -0.1429 C.ar    
  25 C25            1.0402    -2.8654     1.0445 C.ar    
  26 C26            0.9706    -4.2501     0.9993 C.ar    
  27 C27            0.9392    -4.9010    -0.2198 C.ar    
  28 C28            0.9773    -4.1759    -1.3965 C.ar    
  29 C29            1.0409    -2.7954    -1.3611 C.ar    
  30 N30            1.0726    -2.2049     2.2761 N.3     
  31 C31           -0.1728    -2.4237     3.0238 C.3     
  32 C32            2.2402    -2.6195     3.0653 C.3     
  33 C33            2.3823    -1.7060     4.2844 C.3     
  34 N34            3.5499    -2.1206     5.0735 N.3     
  35 C35            3.8596    -1.1318     6.1148 C.3     
  36 C36            3.3446    -3.4530     5.6572 C.3     
  37 H37            4.4363     4.0118     0.0363 H       
  38 H38            2.2819     5.1939     0.0639 H       
  39 H39            0.1703     3.9475     0.0229 H       
  40 H40           -1.3801    -1.3360    -1.0188 H       
  41 H41           -1.3847    -1.3855     0.7605 H       
  42 H42           -7.9028     1.8233    -0.0579 H       
  43 H43           -8.4817    -0.6684    -0.1276 H       
  44 H44           -4.7039    -3.8460    -0.2054 H       
  45 H45            5.1536     1.1075    -1.0632 H       
  46 H46            5.6522     1.9983     0.3949 H       
  47 H47            4.8102     0.4377     0.5497 H       
  48 H48            0.9414    -4.8196     1.9165 H       
  49 H49            0.8850    -5.9791    -0.2532 H       
  50 H50            0.9531    -4.6895    -2.3462 H       
  51 H51            1.0656    -2.2322    -2.2822 H       
  52 H52           -0.3064    -3.4906     3.2028 H       
  53 H53           -0.1208    -1.8989     3.9777 H       
  54 H54           -1.0152    -2.0440     2.4456 H       
  55 H55            2.1077    -3.6495     3.3965 H       
  56 H56            3.1379    -2.5480     2.4511 H       
  57 H57            2.5148    -0.6760     3.9531 H       
  58 H58            1.4846    -1.7775     4.8986 H       
  59 H59            3.0049    -1.0281     6.7832 H       
  60 H60            4.7280    -1.4634     6.6841 H       
  61 H61            4.0758    -0.1700     5.6497 H       
  62 H62            3.1864    -4.1787     4.8595 H       
  63 H63            4.2239    -3.7354     6.2362 H       
  64 H64            2.4712    -3.4334     6.3091 H       
@<TRIPOS>BOND
   1    1    2 2
   2    1   10 1
   3    2    3 1
   4    2   12 1
   5    3    4 am
   6    3   24 1
   7    4    5 1
   8    4   11 2
   9    5    6 ar
  10    5   10 ar
  11    6    7 ar
  12    6   23 1
  13    7    8 ar
  14    7   37 1
  15    8    9 ar
  16    8   38 1
  17    9   10 ar
  18    9   39 1
  19   12   13 1
  20   12   40 1
  21   12   41 1
  22   13   21 1
  23   14   15 2
  24   14   22 1
  25   15   16 1
  26   15   42 1
  27   16   17 1
  28   16   43 1
  29   17   18 ar
  30   17   22 ar
  31   18   19 ar
  32   19   20 ar
  33   19   44 1
  34   20   21 ar
  35   21   22 ar
  36   23   45 1
  37   23   46 1
  38   23   47 1
  39   24   25 ar
  40   24   29 ar
  41   25   26 ar
  42   25   30 1
  43   26   27 ar
  44   26   48 1
  45   27   28 ar
  46   27   49 1
  47   28   29 ar
  48   28   50 1
  49   29   51 1
  50   30   31 1
  51   30   32 1
  52   31   52 1
  53   31   53 1
  54   31   54 1
  55   32   33 1
  56   32   55 1
  57   32   56 1
  58   33   34 1
  59   33   57 1
  60   33   58 1
  61   34   35 1
  62   34   36 1
  63   35   59 1
  64   35   60 1
  65   35   61 1
  66   36   62 1
  67   36   63 1
  68   36   64 1

#	End of record

