#	Name: ASD03240042
#	Creating user name:	WinNT
#	Creation time:	15. 06. 2019 20:34

#	Modifying user name:	WinNT
#	Modification time:	15. 06. 2019 20:34

#	Program:	/corina/corina34_cracker 3.40 0067  02.08.2006

@<TRIPOS>MOLECULE
ASD03240042
  69   75    0    0    0
SMALL
NO_CHARGES


@<TRIPOS>ATOM
   1 C1            -0.0172     1.4139     0.0098 C.ar    
   2 C2             0.0021    -0.0041     0.0020 C.ar    
   3 C3             1.2005     2.1187     0.0020 C.ar    
   4 C4             2.3771     1.3889    -0.0132 C.ar    
   5 C5             2.3182    -0.0239    -0.0203 C.ar    
   6 N6             1.1653    -0.6612    -0.0123 N.ar    
   7 C7             3.5783    -0.8030    -0.0371 C.ar    
   8 C8             3.6871     2.0825    -0.0225 C.ar    
   9 C9             3.9338     3.0996    -0.9435 C.ar    
  10 C10            5.1551     3.7422    -0.9470 C.ar    
  11 C11            6.1337     3.3785    -0.0395 C.ar    
  12 C12            5.8946     2.3700     0.8767 C.ar    
  13 C13            4.6751     1.7243     0.8935 C.ar    
  14 C14            3.6610    -2.0152     0.6473 C.ar    
  15 C15            4.8372    -2.7365     0.6276 C.ar    
  16 C16            5.9329    -2.2594    -0.0693 C.ar    
  17 C17            5.8570    -1.0573    -0.7498 C.ar    
  18 C18            4.6845    -0.3298    -0.7422 C.ar    
  19 C19            7.2144    -3.0521    -0.0868 C.3     
  20 N20            7.2013    -3.9791    -1.2263 N.3     
  21 C21            8.5198    -4.5967    -1.4176 C.3     
  22 C22            8.5090    -5.4404    -2.6943 C.3     
  23 C23            7.4307    -6.5212    -2.5769 C.3     
  24 C24            6.0749    -5.8537    -2.3299 C.3     
  25 C25            6.1563    -4.9980    -1.0637 C.3     
  26 N26            7.3761    -7.2952    -3.8195 N.am    
  27 C27            7.5945    -8.6659    -3.9363 C.ar    
  28 C28            7.4451    -8.9847    -5.2874 C.ar    
  29 N29            7.1405    -7.7979    -5.9498 N.am    
  30 C30            7.1005    -6.8040    -5.0424 C.2     
  31 C31            7.9039    -9.6615    -3.0220 C.ar    
  32 C32            8.0629   -10.9643    -3.4519 C.ar    
  33 C33            7.9147   -11.2804    -4.7916 C.ar    
  34 C34            7.6067   -10.2956    -5.7095 C.ar    
  35 O35            6.8602    -5.6373    -5.2911 O.2     
  36 C36           -1.2185    -0.7029     0.0100 C.ar    
  37 C37           -2.3923    -0.0142     0.0250 C.ar    
  38 C38           -2.4085     1.3791     0.0325 C.ar    
  39 C39           -1.2477     2.0910     0.0310 C.ar    
  40 H40            1.2170     3.1986     0.0073 H       
  41 H41            3.1708     3.3839    -1.6530 H       
  42 H42            5.3474     4.5302    -1.6600 H       
  43 H43            7.0882     3.8836    -0.0464 H       
  44 H44            6.6624     2.0900     1.5827 H       
  45 H45            4.4895     0.9371     1.6092 H       
  46 H46            2.8064    -2.3884     1.1920 H       
  47 H47            4.9026    -3.6753     1.1576 H       
  48 H48            6.7159    -0.6896    -1.2915 H       
  49 H49            4.6263     0.6083    -1.2741 H       
  50 H50            8.0610    -2.3721    -0.1814 H       
  51 H51            7.3046    -3.6176     0.8406 H       
  52 H52            9.2768    -3.8172    -1.5037 H       
  53 H53            8.7499    -5.2334    -0.5634 H       
  54 H54            8.2925    -4.8018    -3.5507 H       
  55 H55            9.4830    -5.9111    -2.8277 H       
  56 H56            7.6678    -7.1834    -1.7443 H       
  57 H57            5.8201    -5.2216    -3.1806 H       
  58 H58            5.3099    -6.6197    -2.2029 H       
  59 H59            6.3975    -5.6329    -0.2112 H       
  60 H60            5.1967    -4.5100    -0.8929 H       
  61 H61            6.9806    -7.7041    -6.9019 H       
  62 H62            8.0206    -9.4186    -1.9762 H       
  63 H63            8.3042   -11.7397    -2.7400 H       
  64 H64            8.0406   -12.3014    -5.1202 H       
  65 H65            7.4915   -10.5460    -6.7538 H       
  66 H66           -1.2243    -1.7829     0.0039 H       
  67 H67           -3.3263    -0.5564     0.0307 H       
  68 H68           -3.3539     1.9011     0.0444 H       
  69 H69           -1.2731     3.1706     0.0369 H       
@<TRIPOS>BOND
   1    1    2 ar
   2    1    3 ar
   3    1   39 ar
   4    2   36 ar
   5    2    6 ar
   6    3    4 ar
   7    3   40 1
   8    4    5 ar
   9    4    8 1
  10    5    6 ar
  11    5    7 1
  12    7   14 ar
  13    7   18 ar
  14    8    9 ar
  15    8   13 ar
  16    9   10 ar
  17    9   41 1
  18   10   11 ar
  19   10   42 1
  20   11   12 ar
  21   11   43 1
  22   12   13 ar
  23   12   44 1
  24   13   45 1
  25   14   15 ar
  26   14   46 1
  27   15   16 ar
  28   15   47 1
  29   16   17 ar
  30   16   19 1
  31   17   18 ar
  32   17   48 1
  33   18   49 1
  34   19   20 1
  35   19   50 1
  36   19   51 1
  37   20   21 1
  38   20   25 1
  39   21   22 1
  40   21   52 1
  41   21   53 1
  42   22   23 1
  43   22   54 1
  44   22   55 1
  45   23   24 1
  46   23   26 1
  47   23   56 1
  48   24   25 1
  49   24   57 1
  50   24   58 1
  51   25   59 1
  52   25   60 1
  53   26   27 1
  54   26   30 am
  55   27   28 ar
  56   27   31 ar
  57   28   29 1
  58   28   34 ar
  59   29   30 am
  60   29   61 1
  61   30   35 2
  62   31   32 ar
  63   31   62 1
  64   32   33 ar
  65   32   63 1
  66   33   34 ar
  67   33   64 1
  68   34   65 1
  69   36   37 ar
  70   36   66 1
  71   37   38 ar
  72   37   67 1
  73   38   39 ar
  74   38   68 1
  75   39   69 1

#	End of record

