#	Name: ASD01700017
#	Creating user name:	WinNT
#	Creation time:	15. 06. 2019 19:22

#	Modifying user name:	WinNT
#	Modification time:	15. 06. 2019 19:22

#	Program:	/corina/corina34_cracker 3.40 0067  02.08.2006

@<TRIPOS>MOLECULE
ASD01700017
  43   46    0    0    0
SMALL
NO_CHARGES


@<TRIPOS>ATOM
   1 Cl1           -5.6383     1.9753    -4.2666 Cl      
   2 Cl2           -1.7908    -0.9745    -6.6500 Cl      
   3 C3            -0.0180     1.4779     0.0102 C.3     
   4 N4             0.0021    -0.0041     0.0020 N.am    
   5 C5             1.0531    -0.3797     0.9580 C.3     
   6 C6             2.0814     0.7728     0.9513 C.3     
   7 C7             1.4809     1.8385    -0.0022 C.3     
   8 C8            -0.8815    -0.4036    -0.9193 C.2     
   9 C9            -1.2522     0.7393    -1.7791 C.2     
  10 C10           -0.7141     1.8792    -1.2591 C.2     
  11 C11           -0.7962     3.1972    -1.8130 C.1     
  12 N12           -0.8614     4.2428    -2.2524 N.1     
  13 C13           -2.0735     0.6597    -3.0062 C.ar    
  14 C14           -1.6028    -0.0374    -4.1205 C.ar    
  15 C15           -2.3745    -0.1086    -5.2632 C.ar    
  16 C16           -3.6128     0.5097    -5.3055 C.ar    
  17 C17           -4.0849     1.2030    -4.2036 C.ar    
  18 C18           -3.3251     1.2765    -3.0532 C.ar    
  19 O19           -1.3135    -1.5341    -1.0319 O.2     
  20 C20           -0.7199     2.0291     1.2530 C.3     
  21 C21           -0.7108     3.5354     1.2085 C.ar    
  22 C22           -1.7536     4.2127     0.6018 C.ar    
  23 C23           -1.7519     5.5915     0.5580 C.ar    
  24 C24           -0.6945     6.3036     1.1277 C.ar    
  25 C25            0.3546     5.6136     1.7384 C.ar    
  26 C26            0.3376     4.2348     1.7797 C.ar    
  27 C27           -0.6859     7.7349     1.0855 C.1     
  28 N28           -0.6790     8.8704     1.0520 N.1     
  29 H29            0.6278    -0.4958     1.9549 H       
  30 H30            1.5299    -1.3082     0.6438 H       
  31 H31            2.1968     1.1837     1.9543 H       
  32 H32            3.0412     0.4223     0.5717 H       
  33 H33            1.8956     1.7396    -1.0053 H       
  34 H34            1.6416     2.8434     0.3882 H       
  35 H35           -0.6370    -0.5197    -4.0889 H       
  36 H36           -4.2127     0.4513    -6.2016 H       
  37 H37           -3.6964     1.8135    -2.1929 H       
  38 H38           -1.7496     1.6725     1.2769 H       
  39 H39           -0.1967     1.6888     2.1466 H       
  40 H40           -2.5707     3.6607     0.1612 H       
  41 H41           -2.5664     6.1190     0.0838 H       
  42 H42            1.1758     6.1582     2.1806 H       
  43 H43            1.1464     3.7000     2.2553 H       
@<TRIPOS>BOND
   1    1   17 1
   2    2   15 1
   3    3    4 1
   4    3    7 1
   5    3   10 1
   6    3   20 1
   7    4    5 1
   8    4    8 am
   9    5    6 1
  10    5   29 1
  11    5   30 1
  12    6    7 1
  13    6   31 1
  14    6   32 1
  15    7   33 1
  16    7   34 1
  17    8    9 1
  18    8   19 2
  19    9   10 2
  20    9   13 1
  21   10   11 1
  22   11   12 3
  23   13   14 ar
  24   13   18 ar
  25   14   15 ar
  26   14   35 1
  27   15   16 ar
  28   16   17 ar
  29   16   36 1
  30   17   18 ar
  31   18   37 1
  32   20   21 1
  33   20   38 1
  34   20   39 1
  35   21   22 ar
  36   21   26 ar
  37   22   23 ar
  38   22   40 1
  39   23   24 ar
  40   23   41 1
  41   24   25 ar
  42   24   27 1
  43   25   26 ar
  44   25   42 1
  45   26   43 1
  46   27   28 3

#	End of record

