#	Name: ASD02198466
#	Creating user name:	WinNT
#	Creation time:	15. 06. 2019 20:19

#	Modifying user name:	WinNT
#	Modification time:	15. 06. 2019 20:19

#	Program:	/corina/corina34_cracker 3.40 0067  02.08.2006

@<TRIPOS>MOLECULE
ASD02198466
  41   44    0    0    0
SMALL
NO_CHARGES


@<TRIPOS>ATOM
   1 C1            -0.2821     1.6236    -0.2721 C.2     
   2 C2            -0.4281     0.2760    -0.2171 C.2     
   3 N3             0.6476    -0.5331    -0.0864 N.pl3   
   4 N4             1.8506    -0.0977    -0.0074 N.2     
   5 C5             2.1332     1.1865    -0.0482 C.2     
   6 C6             1.0294     2.1502    -0.1886 C.2     
   7 C7             0.4368    -1.9149    -0.0342 C.ar    
   8 C8            -1.0601    -3.7848     0.0825 C.ar    
   9 C9             0.0197    -4.6484     0.0689 C.ar    
  10 C10            1.3081    -4.1487     0.0097 C.ar    
  11 C11            1.5198    -2.7852    -0.0419 C.ar    
  12 C12            3.5316     1.6525     0.0461 C.2     
  13 N13            4.1830     2.4525    -0.8501 N.pl3   
  14 N14            5.4864     2.6494    -0.3774 N.2     
  15 C15            5.6269     2.0024     0.7521 C.2     
  16 C16            4.4230     1.3675     1.0572 C.2     
  17 C17            3.6435     2.9809    -2.0301 C.ar    
  18 C18            2.8453     2.1894    -2.8454 C.ar    
  19 O19            1.2364     3.3537    -0.2321 O.2     
  20 C20           -0.8555    -2.4199     0.0312 C.ar    
  21 C21            3.9015     4.2988    -2.3836 C.ar    
  22 C22            3.3685     4.8173    -3.5473 C.ar    
  23 C23            2.5781     4.0247    -4.3610 C.ar    
  24 C24            2.3148     2.7127    -4.0081 C.ar    
  25 Cl25           1.9092     4.6796    -5.8230 Cl      
  26 C26           -2.4621    -4.3338     0.1471 C.3     
  27 F27           -2.4143    -5.7315     0.1848 F       
  28 F28           -3.0967    -3.8577     1.2994 F       
  29 F29           -3.1767    -3.9219    -0.9828 F       
  30 H30           -1.1380     2.2733    -0.3805 H       
  31 H31           -1.4160    -0.1562    -0.2782 H       
  32 H32           -0.1432    -5.7154     0.1050 H       
  33 H33            2.1494    -4.8259    -0.0008 H       
  34 H34            2.5261    -2.3958    -0.0885 H       
  35 H35            6.5252     1.9690     1.3507 H       
  36 H36            4.2269     0.7572     1.9264 H       
  37 H37            2.6399     1.1653    -2.5706 H       
  38 H38           -1.6994    -1.7459     0.0422 H       
  39 H39            4.5180     4.9179    -1.7487 H       
  40 H40            3.5686     5.8424    -3.8225 H       
  41 H41            1.6979     2.0960    -4.6450 H       
@<TRIPOS>BOND
   1    1    2 2
   2    1    6 1
   3    1   30 1
   4    2    3 1
   5    2   31 1
   6    3    4 1
   7    3    7 1
   8    4    5 2
   9    5    6 1
  10    5   12 1
  11    6   19 2
  12    7   20 ar
  13    7   11 ar
  14    8    9 ar
  15    8   26 1
  16    8   20 ar
  17    9   10 ar
  18    9   32 1
  19   10   11 ar
  20   10   33 1
  21   11   34 1
  22   12   13 1
  23   12   16 2
  24   13   14 1
  25   13   17 1
  26   14   15 2
  27   15   16 1
  28   15   35 1
  29   16   36 1
  30   17   21 ar
  31   17   18 ar
  32   18   24 ar
  33   18   37 1
  34   20   38 1
  35   21   22 ar
  36   21   39 1
  37   22   23 ar
  38   22   40 1
  39   23   24 ar
  40   23   25 1
  41   24   41 1
  42   26   27 1
  43   26   28 1
  44   26   29 1

#	End of record

