#	Name: ASD01510014
#	Creating user name:	WinNT
#	Creation time:	15. 06. 2019 19:21

#	Modifying user name:	WinNT
#	Modification time:	15. 06. 2019 19:21

#	Program:	/corina/corina34_cracker 3.40 0067  02.08.2006

@<TRIPOS>MOLECULE
ASD01510014
  77   80    0    0    0
SMALL
NO_CHARGES


@<TRIPOS>ATOM
   1 C1            -0.4590     0.9148     0.5642 C.3     
   2 O2            -0.3066    -0.5057     0.5958 O.3     
   3 C3             0.2088    -1.0945    -0.5120 C.ar    
   4 N4             0.5494    -0.3625    -1.5674 N.ar    
   5 C5             1.0532    -0.9295    -2.6529 C.ar    
   6 N6             1.2381    -2.2382    -2.7351 N.ar    
   7 C7             0.9216    -3.0360    -1.7207 C.ar    
   8 C8             0.3940    -2.4762    -0.5572 C.ar    
   9 S9            -0.0410    -3.4908     0.8161 S.3     
  10 C10            1.4861    -3.4875     1.6950 C.ar    
  11 N11            1.5785    -4.1634     2.8312 N.ar    
  12 C12            2.7153    -4.1836     3.5208 C.ar    
  13 N13            2.8040    -4.8960     4.7123 N.am    
  14 C14            1.7071    -5.4845     5.2288 C.2     
  15 O15            0.6256    -5.3155     4.7069 O.2     
  16 C16            1.8246    -6.3527     6.4550 C.3     
  17 C17            3.8152    -3.4831     3.0347 C.ar    
  18 C18            3.6804    -2.7850     1.8384 C.ar    
  19 N19            2.5143    -2.8136     1.2000 N.ar    
  20 N20            4.7531    -2.0709     1.3147 N.am    
  21 C21            4.6459    -1.4833     0.1065 C.2     
  22 O22            3.5863    -1.4979    -0.4830 O.2     
  23 C23            5.8429    -0.8080    -0.5118 C.3     
  24 O24            1.1142    -4.3754    -1.8132 O.3     
  25 C25            1.6645    -4.8687    -3.0363 C.3     
  26 N26            1.3961    -0.1312    -3.7331 N.pl3   
  27 C27            1.9550    -0.7376    -4.9439 C.3     
  28 C28            0.8366    -1.0978    -5.8875 C.ar    
  29 C29            0.4027    -0.1798    -6.8260 C.ar    
  30 C30           -0.6224    -0.5076    -7.6921 C.ar    
  31 C31           -1.2165    -1.7592    -7.6197 C.ar    
  32 C32           -0.7793    -2.6786    -6.6773 C.ar    
  33 C33            0.2499    -2.3479    -5.8171 C.ar    
  34 O34           -2.2253    -2.0839    -8.4704 O.3     
  35 C35           -2.7900    -3.3900    -8.3386 C.3     
  36 C36            1.1995     1.3189    -3.6638 C.3     
  37 C37            2.4422     1.9685    -3.1116 C.ar    
  38 C38            3.4463     2.3780    -3.9694 C.ar    
  39 C39            4.5864     2.9737    -3.4657 C.ar    
  40 C40            4.7234     3.1609    -2.0979 C.ar    
  41 C41            3.7145     2.7491    -1.2393 C.ar    
  42 C42            2.5738     2.1590    -1.7485 C.ar    
  43 O43            5.8442     3.7462    -1.5999 O.3     
  44 C44            5.9168     3.9068    -0.1819 C.3     
  45 H45            0.5140     1.3813     0.4103 H       
  46 H46           -1.1272     1.1904    -0.2518 H       
  47 H47           -0.8802     1.2562     1.5098 H       
  48 H48            3.6554    -4.9691     5.1713 H       
  49 H49            2.8649    -6.3856     6.7786 H       
  50 H50            1.2086    -5.9390     7.2535 H       
  51 H51            1.4851    -7.3614     6.2198 H       
  52 H52            4.7512    -3.4811     3.5734 H       
  53 H53            5.5783    -1.9959     1.8190 H       
  54 H54            6.3959    -1.5288    -1.1141 H       
  55 H55            5.5094     0.0145    -1.1446 H       
  56 H56            6.4892    -0.4212     0.2761 H       
  57 H57            1.0026    -4.6102    -3.8628 H       
  58 H58            2.6440    -4.4199    -3.2011 H       
  59 H59            1.7666    -5.9523    -2.9778 H       
  60 H60            2.6256    -0.0284    -5.4292 H       
  61 H61            2.5093    -1.6374    -4.6770 H       
  62 H62            0.8653     0.7945    -6.8816 H       
  63 H63           -0.9612     0.2099    -8.4247 H       
  64 H64           -1.2402    -3.6535    -6.6190 H       
  65 H65            0.5907    -3.0632    -5.0833 H       
  66 H66           -3.5829    -3.5191    -9.0753 H       
  67 H67           -2.0154    -4.1390    -8.5034 H       
  68 H68           -3.2023    -3.5081    -7.3365 H       
  69 H69            1.0001     1.7067    -4.6628 H       
  70 H70            0.3539     1.5403    -3.0127 H       
  71 H71            3.3393     2.2317    -5.0341 H       
  72 H72            5.3706     3.2931    -4.1361 H       
  73 H73            3.8187     2.8938    -0.1742 H       
  74 H74            1.7881     1.8383    -1.0805 H       
  75 H75            5.8588     2.9298     0.2979 H       
  76 H76            6.8599     4.3856     0.0817 H       
  77 H77            5.0872     4.5276     0.1565 H       
@<TRIPOS>BOND
   1    1    2 1
   2    1   45 1
   3    1   46 1
   4    1   47 1
   5    2    3 1
   6    3    4 ar
   7    3    8 ar
   8    4    5 ar
   9    5    6 ar
  10    5   26 1
  11    6    7 ar
  12    7    8 ar
  13    7   24 1
  14    8    9 1
  15    9   10 1
  16   10   11 ar
  17   10   19 ar
  18   11   12 ar
  19   12   13 1
  20   12   17 ar
  21   13   14 am
  22   13   48 1
  23   14   15 2
  24   14   16 1
  25   16   49 1
  26   16   50 1
  27   16   51 1
  28   17   18 ar
  29   17   52 1
  30   18   19 ar
  31   18   20 1
  32   20   21 am
  33   20   53 1
  34   21   22 2
  35   21   23 1
  36   23   54 1
  37   23   55 1
  38   23   56 1
  39   24   25 1
  40   25   57 1
  41   25   58 1
  42   25   59 1
  43   26   27 1
  44   26   36 1
  45   27   28 1
  46   27   60 1
  47   27   61 1
  48   28   29 ar
  49   28   33 ar
  50   29   30 ar
  51   29   62 1
  52   30   31 ar
  53   30   63 1
  54   31   32 ar
  55   31   34 1
  56   32   33 ar
  57   32   64 1
  58   33   65 1
  59   34   35 1
  60   35   66 1
  61   35   67 1
  62   35   68 1
  63   36   37 1
  64   36   69 1
  65   36   70 1
  66   37   38 ar
  67   37   42 ar
  68   38   39 ar
  69   38   71 1
  70   39   40 ar
  71   39   72 1
  72   40   41 ar
  73   40   43 1
  74   41   42 ar
  75   41   73 1
  76   42   74 1
  77   43   44 1
  78   44   75 1
  79   44   76 1
  80   44   77 1

#	End of record

