#	Name: ASD01911787
#	Creating user name:	WinNT
#	Creation time:	15. 06. 2019 19:58

#	Modifying user name:	WinNT
#	Modification time:	15. 06. 2019 19:58

#	Program:	/corina/corina34_cracker 3.40 0067  02.08.2006

@<TRIPOS>MOLECULE
ASD01911787
  39   41    0    0    0
SMALL
NO_CHARGES


@<TRIPOS>ATOM
   1 C1            -0.3490     1.5374     0.0098 C.2     
   2 N2            -0.2712     0.1900     0.3397 N.pl3   
   3 C3             0.7155     2.3910     0.4002 C.2     
   4 C4             1.7617     1.8524     1.0783 C.2     
   5 N5             1.7851     0.5435     1.3707 N.2     
   6 C6             0.8259    -0.2635     1.0276 C.2     
   7 C7            -1.3839    -0.4374    -0.1255 C.2     
   8 C8            -2.1833     0.5086    -0.7582 C.2     
   9 C9            -1.5103     1.7532    -0.6676 C.2     
  10 N10           -1.6714    -1.7858     0.0072 N.pl3   
  11 C11           -0.9242    -2.7329    -0.7002 C.ar    
  12 C12           -1.2549    -4.0823    -0.6216 C.ar    
  13 C13            0.1457    -2.3285    -1.4871 C.ar    
  14 C14            0.8819    -3.2664    -2.1853 C.ar    
  15 C15            0.5546    -4.6075    -2.1020 C.ar    
  16 C16           -0.5139    -5.0151    -1.3228 C.ar    
  17 F17           -2.2980    -4.4800     0.1392 F       
  18 I18            1.6740    -6.0244    -3.1642 I       
  19 C19           -3.4791     0.2633    -1.4038 C.2     
  20 N20           -4.1476     1.2811    -1.9814 N.am    
  21 O21           -3.9494    -0.8590    -1.4172 O.2     
  22 O22           -5.3973     1.0445    -2.6039 O.3     
  23 C23           -5.9928     2.2117    -3.1741 C.3     
  24 C24           -7.3311     1.8399    -3.8155 C.3     
  25 O25           -8.2413     1.4078    -2.8021 O.3     
  26 F26            0.6890     3.7088     0.1037 F       
  27 H27            2.5826     2.4838     1.3846 H       
  28 H28            0.8938    -1.3095     1.2881 H       
  29 H29           -1.8577     2.6985    -1.0576 H       
  30 H30           -2.3910    -2.0732     0.5907 H       
  31 H31            0.4021    -1.2815    -1.5538 H       
  32 H32            1.7142    -2.9517    -2.7974 H       
  33 H33           -0.7668    -6.0632    -1.2595 H       
  34 H34           -3.7727     2.1756    -1.9707 H       
  35 H35           -6.1579     2.9539    -2.3931 H       
  36 H36           -5.3284     2.6247    -3.9332 H       
  37 H37           -7.7431     2.7099    -4.3269 H       
  38 H38           -7.1784     1.0346    -4.5341 H       
  39 H39           -9.1125     1.1556    -3.1375 H       
@<TRIPOS>BOND
   1    1    2 1
   2    1    3 1
   3    1    9 2
   4    2    7 1
   5    2    6 1
   6    3    4 2
   7    3   26 1
   8    4    5 1
   9    4   27 1
  10    5    6 2
  11    6   28 1
  12    7    8 2
  13    7   10 1
  14    8    9 1
  15    8   19 1
  16    9   29 1
  17   10   11 1
  18   10   30 1
  19   11   12 ar
  20   11   13 ar
  21   12   17 1
  22   12   16 ar
  23   13   14 ar
  24   13   31 1
  25   14   15 ar
  26   14   32 1
  27   15   16 ar
  28   15   18 1
  29   16   33 1
  30   19   20 am
  31   19   21 2
  32   20   22 1
  33   20   34 1
  34   22   23 1
  35   23   24 1
  36   23   35 1
  37   23   36 1
  38   24   25 1
  39   24   37 1
  40   24   38 1
  41   25   39 1

#	End of record

