#	Name: ASD04910418
#	Creating user name:	WinNT
#	Creation time:	15. 06. 2019 20:55

#	Modifying user name:	WinNT
#	Modification time:	15. 06. 2019 20:55

#	Program:	/corina/corina34_cracker 3.40 0067  02.08.2006

@<TRIPOS>MOLECULE
ASD04910418
  51   53    0    0    0
SMALL
NO_CHARGES


@<TRIPOS>ATOM
   1 C1            -0.0180     1.4731     0.0101 C.2     
   2 C2             0.0021    -0.0041     0.0020 C.ar    
   3 C3             1.2189    -0.6885    -0.0133 C.ar    
   4 C4             1.2300    -2.0701    -0.0208 C.ar    
   5 C5             0.0365    -2.7748    -0.0133 C.ar    
   6 C6            -1.1712    -2.1008     0.0014 C.ar    
   7 C7            -1.1956    -0.7214     0.0154 C.ar    
   8 O8             1.0256     2.0947     0.0035 O.2     
   9 O9            -1.1936     2.1307     0.0193 O.3     
  10 C10            0.0548    -4.2816    -0.0216 C.3     
  11 C11            0.2005    -4.7978     1.4113 C.3     
  12 C12            0.3443    -6.3209     1.3926 C.3     
  13 C13            0.4899    -6.8371     2.8255 C.3     
  14 N14           -1.1964    -4.7821    -0.5961 N.pl3   
  15 C15           -0.0951    -6.8366    -1.2409 C.ar    
  16 C16           -1.2362    -6.0472    -1.1905 C.ar    
  17 C17           -2.4216    -6.5322    -1.7393 C.ar    
  18 C18           -2.4141    -7.7898    -2.3166 C.ar    
  19 C19           -1.2337    -8.5219    -2.3299 C.ar    
  20 N20           -0.1259    -8.0304    -1.7994 N.ar    
  21 N21           -1.2161    -9.7948    -2.9116 N.pl3   
  22 N22           -2.3039   -10.4441    -3.5098 N.2     
  23 C23           -1.8991   -11.6126    -3.9374 C.2     
  24 C24           -0.5415   -11.7493    -3.6274 C.2     
  25 C25           -0.1402   -10.6185    -3.0019 C.2     
  26 C26            0.3229   -12.9435    -3.9401 C.3     
  27 F27           -0.4416   -13.9133    -4.5974 F       
  28 F28            1.3833   -12.5490    -4.7629 F       
  29 F29            0.8295   -13.4768    -2.7501 F       
  30 F30            2.4059    -2.7351    -0.0361 F       
  31 C31           -1.1373     3.5816     0.0269 C.3     
  32 H32            2.1489    -0.1396    -0.0195 H       
  33 H33           -2.0976    -2.6559     0.0069 H       
  34 H34           -2.1397    -0.1973     0.0317 H       
  35 H35            0.8954    -4.6315    -0.6210 H       
  36 H36            1.0851    -4.3549     1.8689 H       
  37 H37           -0.6829    -4.5234     1.9879 H       
  38 H38           -0.5403    -6.7638     0.9350 H       
  39 H39            1.2277    -6.5954     0.8160 H       
  40 H40            1.3745    -6.3942     3.2831 H       
  41 H41           -0.3935    -6.5626     3.4021 H       
  42 H42            0.5924    -7.9222     2.8121 H       
  43 H43           -1.9974    -4.2358    -0.5643 H       
  44 H44            0.8290    -6.4667    -0.8220 H       
  45 H45           -3.3250    -5.9408    -1.7143 H       
  46 H46           -3.3149    -8.1972    -2.7511 H       
  47 H47           -2.5089   -12.3465    -4.4433 H       
  48 H48            0.8550   -10.4098    -2.6381 H       
  49 H49           -0.6056     3.9199     0.9162 H       
  50 H50           -0.6140     3.9296    -0.8637 H       
  51 H51           -2.1501     3.9845     0.0339 H       
@<TRIPOS>BOND
   1    1    2 1
   2    1    8 2
   3    1    9 1
   4    2    3 ar
   5    2    7 ar
   6    3    4 ar
   7    3   32 1
   8    4    5 ar
   9    4   30 1
  10    5    6 ar
  11    5   10 1
  12    6    7 ar
  13    6   33 1
  14    7   34 1
  15    9   31 1
  16   10   11 1
  17   10   14 1
  18   10   35 1
  19   11   12 1
  20   11   36 1
  21   11   37 1
  22   12   13 1
  23   12   38 1
  24   12   39 1
  25   13   40 1
  26   13   41 1
  27   13   42 1
  28   14   16 1
  29   14   43 1
  30   15   16 ar
  31   15   20 ar
  32   15   44 1
  33   16   17 ar
  34   17   18 ar
  35   17   45 1
  36   18   19 ar
  37   18   46 1
  38   19   20 ar
  39   19   21 1
  40   21   22 1
  41   21   25 1
  42   22   23 2
  43   23   24 1
  44   23   47 1
  45   24   25 2
  46   24   26 1
  47   25   48 1
  48   26   27 1
  49   26   28 1
  50   26   29 1
  51   31   49 1
  52   31   50 1
  53   31   51 1

#	End of record

