#	Name: ASD01813671
#	Creating user name:	WinNT
#	Creation time:	15. 06. 2019 19:30

#	Modifying user name:	WinNT
#	Modification time:	15. 06. 2019 19:30

#	Program:	/corina/corina34_cracker 3.40 0067  02.08.2006

@<TRIPOS>MOLECULE
ASD01813671
  47   50    0    0    0
SMALL
NO_CHARGES


@<TRIPOS>ATOM
   1 C1             0.0987     1.4752     0.3557 C.ar    
   2 C2             0.0803     0.0889     0.3476 C.ar    
   3 C3             1.2503    -0.6314     0.2176 C.ar    
   4 C4             2.4681     0.0345     0.0920 C.ar    
   5 C5             2.4852     1.4397     0.0998 C.ar    
   6 C6             1.2931     2.1562     0.2326 C.ar    
   7 N7             3.6439    -0.6744    -0.0375 N.pl3   
   8 C8             4.8383    -0.0818    -0.1601 C.2     
   9 C9             4.9810     1.2911    -0.1654 C.2     
  10 C10            3.7795     2.1315    -0.0338 C.2     
  11 O11            3.8523     3.3479    -0.0334 O.2     
  12 C12            6.3099     1.9036    -0.3011 C.2     
  13 O13            6.4362     3.2457    -0.3049 O.3     
  14 O14            7.2952     1.2000    -0.4100 O.2     
  15 C15            3.5837    -2.1382    -0.0406 C.3     
  16 C16            3.4403    -2.6321    -1.4571 C.ar    
  17 C17            4.5551    -2.7792    -2.2609 C.ar    
  18 N18            4.4430    -3.2101    -3.5012 N.ar    
  19 C19            3.2643    -3.5189    -4.0262 C.ar    
  20 C20            2.0987    -3.3942    -3.2722 C.ar    
  21 C21            2.1880    -2.9490    -1.9652 C.ar    
  22 F22            1.2151    -1.9819     0.2126 F       
  23 F23            1.3092     3.5071     0.2397 F       
  24 C24            3.1864    -4.0000    -5.4266 C.ar    
  25 C25            4.3479    -4.1268    -6.1873 C.ar    
  26 C26            4.2722    -4.5749    -7.4890 C.ar    
  27 C27            3.0409    -4.8997    -8.0425 C.ar    
  28 C28            1.8823    -4.7744    -7.2874 C.ar    
  29 C29            1.9520    -4.3319    -5.9835 C.ar    
  30 O30            2.9694    -5.3405    -9.3254 O.3     
  31 C31            1.6710    -5.6568    -9.8314 C.3     
  32 H32           -0.8259     2.0246     0.4541 H       
  33 H33           -0.8601    -0.4332     0.4446 H       
  34 H34            5.7195    -0.6986    -0.2577 H       
  35 H35            7.3304     3.6022    -0.3967 H       
  36 H36            4.4990    -2.5404     0.3935 H       
  37 H37            2.7272    -2.4678     0.5476 H       
  38 H38            5.5313    -2.5373    -1.8672 H       
  39 H39            1.1397    -3.6452    -3.7010 H       
  40 H40            1.3022    -2.8424    -1.3566 H       
  41 H41            5.3059    -3.8740    -5.7574 H       
  42 H42            5.1716    -4.6731    -8.0788 H       
  43 H43            0.9259    -5.0275    -7.7208 H       
  44 H44            1.0506    -4.2350    -5.3966 H       
  45 H45            1.2273    -6.4466    -9.2252 H       
  46 H46            1.0392    -4.7695    -9.7910 H       
  47 H47            1.7560    -5.9956   -10.8639 H       
@<TRIPOS>BOND
   1    1    2 ar
   2    1    6 ar
   3    1   32 1
   4    2    3 ar
   5    2   33 1
   6    3   22 1
   7    3    4 ar
   8    4    5 ar
   9    4    7 1
  10    5    6 ar
  11    5   10 1
  12    6   23 1
  13    7    8 1
  14    7   15 1
  15    8    9 2
  16    8   34 1
  17    9   10 1
  18    9   12 1
  19   10   11 2
  20   12   13 1
  21   12   14 2
  22   13   35 1
  23   15   16 1
  24   15   36 1
  25   15   37 1
  26   16   17 ar
  27   16   21 ar
  28   17   18 ar
  29   17   38 1
  30   18   19 ar
  31   19   20 ar
  32   19   24 1
  33   20   21 ar
  34   20   39 1
  35   21   40 1
  36   24   25 ar
  37   24   29 ar
  38   25   26 ar
  39   25   41 1
  40   26   27 ar
  41   26   42 1
  42   27   28 ar
  43   27   30 1
  44   28   29 ar
  45   28   43 1
  46   29   44 1
  47   30   31 1
  48   31   45 1
  49   31   46 1
  50   31   47 1

#	End of record

