#	Name: ASD01150655
#	Creating user name:	WinNT
#	Creation time:	15. 06. 2019 19:04

#	Modifying user name:	WinNT
#	Modification time:	15. 06. 2019 19:04

#	Program:	/corina/corina34_cracker 3.40 0067  02.08.2006

@<TRIPOS>MOLECULE
ASD01150655
  51   53    0    0    0
SMALL
NO_CHARGES


@<TRIPOS>ATOM
   1 C1             2.0393     1.3515     0.8897 C.ar    
   2 C2             2.0226    -0.0291     0.9398 C.ar    
   3 C3             0.5568    -0.0824    -0.9637 C.ar    
   4 C4             0.5721     1.3035    -1.0151 C.ar    
   5 C5             1.3142     2.0217    -0.0877 C.ar    
   6 N6             1.3317     3.4206    -0.1369 N.am    
   7 C7             0.1723     4.0949    -0.2320 C.2     
   8 N8             0.1522     5.4399    -0.2815 N.am    
   9 C9             1.3076     6.1351    -0.2359 C.2     
  10 C10            2.5791     5.4036    -0.1320 C.2     
  11 N11            2.5556     4.0977    -0.0807 N.2     
  12 O12            1.2977     7.3513    -0.2806 O.2     
  13 C13           -1.1252     6.1495    -0.3855 C.3     
  14 O14           -0.8758     3.4794    -0.2743 O.2     
  15 C15           -1.6504     6.4437     0.9960 C.ar    
  16 O16            3.7593     6.0748    -0.0840 O.3     
  17 C17            4.9487     5.2892     0.0169 C.3     
  18 C18            1.2841    -0.7483     0.0171 C.ar    
  19 N19           -0.1912    -0.8103    -1.8975 N.am    
  20 C20            0.3732    -1.1972    -3.0587 C.2     
  21 O21           -0.2438    -1.9047    -3.8267 O.2     
  22 C22            1.7708    -0.7508    -3.4027 C.3     
  23 C23           -1.3097     7.6251     1.6275 C.ar    
  24 C24           -1.7904     7.8962     2.8953 C.ar    
  25 C25           -2.6121     6.9861     3.5324 C.ar    
  26 C26           -2.9545     5.8024     2.9005 C.ar    
  27 C27           -2.4771     5.5346     1.6289 C.ar    
  28 F28            1.2697    -2.0983     0.0686 F       
  29 F29           -3.7577     4.9119     3.5225 F       
  30 C30           -1.5871    -1.1513    -1.6121 C.3     
  31 C31           -3.1351     7.2814     4.9145 C.3     
  32 F32           -2.6555     8.5254     5.3387 F       
  33 F33           -4.5336     7.3050     4.8888 F       
  34 F34           -2.7016     6.2882     5.7992 F       
  35 H35            2.6131     1.9105     1.6140 H       
  36 H36            2.5873    -0.5477     1.7003 H       
  37 H37            0.0079     1.8230    -1.7755 H       
  38 H38           -0.9783     7.0850    -0.9252 H       
  39 H39           -1.8428     5.5291    -0.9225 H       
  40 H40            5.0223     4.6288    -0.8471 H       
  41 H41            5.8172     5.9472     0.0464 H       
  42 H42            4.9138     4.6926     0.9284 H       
  43 H43            2.4835    -1.5130    -3.0880 H       
  44 H44            1.8499    -0.6018    -4.4796 H       
  45 H45            1.9898     0.1855    -2.8894 H       
  46 H46           -0.6672     8.3368     1.1304 H       
  47 H47           -1.5233     8.8194     3.3879 H       
  48 H48           -2.7435     4.6118     1.1351 H       
  49 H49           -2.2312    -0.3233    -1.9082 H       
  50 H50           -1.8643    -2.0451    -2.1710 H       
  51 H51           -1.7043    -1.3392    -0.5449 H       
@<TRIPOS>BOND
   1    1    2 ar
   2    1    5 ar
   3    1   35 1
   4    2   18 ar
   5    2   36 1
   6    3    4 ar
   7    3   19 1
   8    3   18 ar
   9    4    5 ar
  10    4   37 1
  11    5    6 1
  12    6    7 am
  13    6   11 1
  14    7    8 am
  15    7   14 2
  16    8    9 am
  17    8   13 1
  18    9   10 1
  19    9   12 2
  20   10   11 2
  21   10   16 1
  22   13   15 1
  23   13   38 1
  24   13   39 1
  25   15   23 ar
  26   15   27 ar
  27   16   17 1
  28   17   40 1
  29   17   41 1
  30   17   42 1
  31   18   28 1
  32   19   20 am
  33   19   30 1
  34   20   21 2
  35   20   22 1
  36   22   43 1
  37   22   44 1
  38   22   45 1
  39   23   24 ar
  40   23   46 1
  41   24   25 ar
  42   24   47 1
  43   25   26 ar
  44   25   31 1
  45   26   27 ar
  46   26   29 1
  47   27   48 1
  48   30   49 1
  49   30   50 1
  50   30   51 1
  51   31   32 1
  52   31   33 1
  53   31   34 1

#	End of record

