#	Name: ASD02508395
#	Creating user name:	WinNT
#	Creation time:	15. 06. 2019 20:24

#	Modifying user name:	WinNT
#	Modification time:	15. 06. 2019 20:24

#	Program:	/corina/corina34_cracker 3.40 0067  02.08.2006

@<TRIPOS>MOLECULE
ASD02508395
  39   41    0    0    0
SMALL
NO_CHARGES


@<TRIPOS>ATOM
   1 C1             0.6232     1.5301     0.6626 C.2     
   2 C2             0.4665     0.1286     0.6638 C.2     
   3 C3             1.6080    -0.4073     0.1884 C.2     
   4 N4             2.4677     0.6137    -0.1078 N.pl3   
   5 C5             1.8547     1.7999     0.1865 C.2     
   6 C6             3.7548     0.4694    -0.6232 C.ar    
   7 N7             4.4789     1.5509    -0.8632 N.ar    
   8 N8             4.2244    -0.7457    -0.8552 N.ar    
   9 C9             5.4420    -0.9196    -1.3436 C.ar    
  10 C10            6.2269     0.1894    -1.6121 C.ar    
  11 C11            5.7049     1.4494    -1.3520 C.ar    
  12 S12            1.9361    -2.1265    -0.0151 S.o2    
  13 O13            1.6569    -2.4300    -1.3750 O.2     
  14 O14            3.1977    -2.3689     0.5922 O.2     
  15 N15            0.8171    -2.9492     0.8868 N.am    
  16 C16            0.7731    -2.7763     2.2721 C.ar    
  17 C17           -0.4442    -2.5737     2.9099 C.ar    
  18 C18           -0.4843    -2.4035     4.2799 C.ar    
  19 C19            0.6856    -2.4348     5.0166 C.ar    
  20 C20            1.8991    -2.6363     4.3848 C.ar    
  21 C21            1.9458    -2.8124     3.0158 C.ar    
  22 C22           -1.8043    -2.1832     4.9727 C.3     
  23 C23            3.1714    -2.6695     5.1917 C.3     
  24 Cl24           6.6454     2.8735    -1.6699 Cl      
  25 H25           -0.1115     2.2550     0.9807 H       
  26 H26           -0.4084    -0.4159     0.9871 H       
  27 H27            2.2830     2.7830     0.0588 H       
  28 H28            5.8191    -1.9143    -1.5303 H       
  29 H29            7.2243     0.0765    -2.0107 H       
  30 H30            0.1923    -3.5512     0.4530 H       
  31 H31           -1.3582    -2.5488     2.3351 H       
  32 H32            0.6515    -2.3011     6.0877 H       
  33 H33            2.8938    -2.9701     2.5230 H       
  34 H34           -2.2275    -3.1449     5.2627 H       
  35 H35           -1.6505    -1.5711     5.8614 H       
  36 H36           -2.4897    -1.6741     4.2951 H       
  37 H37            3.3737    -3.6924     5.5092 H       
  38 H38            3.9987    -2.3085     4.5807 H       
  39 H39            3.0621    -2.0317     6.0688 H       
@<TRIPOS>BOND
   1    1    2 1
   2    1    5 2
   3    1   25 1
   4    2    3 2
   5    2   26 1
   6    3    4 1
   7    3   12 1
   8    4    5 1
   9    4    6 1
  10    5   27 1
  11    6    7 ar
  12    6    8 ar
  13    7   11 ar
  14    8    9 ar
  15    9   10 ar
  16    9   28 1
  17   10   11 ar
  18   10   29 1
  19   11   24 1
  20   12   13 2
  21   12   14 2
  22   12   15 am
  23   15   16 1
  24   15   30 1
  25   16   17 ar
  26   16   21 ar
  27   17   18 ar
  28   17   31 1
  29   18   19 ar
  30   18   22 1
  31   19   20 ar
  32   19   32 1
  33   20   21 ar
  34   20   23 1
  35   21   33 1
  36   22   34 1
  37   22   35 1
  38   22   36 1
  39   23   37 1
  40   23   38 1
  41   23   39 1

#	End of record

