#	Name: ASD01148183
#	Creating user name:	WinNT
#	Creation time:	15. 06. 2019 19:02

#	Modifying user name:	WinNT
#	Modification time:	15. 06. 2019 19:02

#	Program:	/corina/corina34_cracker 3.40 0067  02.08.2006

@<TRIPOS>MOLECULE
ASD01148183
  49   52    0    0    0
SMALL
NO_CHARGES


@<TRIPOS>ATOM
   1 C1            -0.0167     1.3777     0.0096 C.ar    
   2 C2             0.0021    -0.0041     0.0020 C.ar    
   3 C3             1.2098    -0.6793    -0.0131 C.ar    
   4 C4             2.3977     0.0294    -0.0206 C.ar    
   5 C5             2.3777     1.4116    -0.0130 C.ar    
   6 C6             1.1710     2.0855     0.0021 C.ar    
   7 C7             3.6718     2.1839    -0.0212 C.3     
   8 O8             4.6969     1.4658    -0.7375 O.3     
   9 C9             3.5417     3.4737    -0.8661 C.3     
  10 C10            4.0452     3.0289    -2.2262 C.2     
  11 N11            4.6710     1.9094    -2.0797 N.2     
  12 C12            3.8521     3.7518    -3.4986 C.ar    
  13 C13            4.3707     3.2278    -4.6855 C.ar    
  14 C14            3.1459     4.9573    -3.5171 C.ar    
  15 C15            2.9660     5.6313    -4.7038 C.ar    
  16 C16            3.4895     5.1102    -5.8894 C.ar    
  17 C17            4.1906     3.9021    -5.8720 C.ar    
  18 C18            3.2958     5.8338    -7.1635 C.2     
  19 O19            2.6810     6.8824    -7.1796 O.2     
  20 N20            3.8008     5.3311    -8.3075 N.am    
  21 C21            4.1233     2.5056     1.4048 C.3     
  22 F22            4.2988     1.3150     2.1182 F       
  23 F23            5.3328     3.2074     1.3639 F       
  24 F24            3.1510     3.2886     2.0363 F       
  25 Cl25           1.2342    -2.4151    -0.0221 Cl      
  26 C26            3.6089     6.0483    -9.5704 C.3     
  27 C27            4.2653     5.2807   -10.6889 C.ar    
  28 N28            5.5503     5.4515   -10.9299 N.ar    
  29 C29            6.1667     4.8014   -11.8978 C.ar    
  30 C30            5.4797     3.9108   -12.7004 C.ar    
  31 C31            4.1266     3.7048   -12.4770 C.ar    
  32 C32            3.5145     4.4015   -11.4466 C.ar    
  33 H33           -0.9593     1.9048     0.0169 H       
  34 H34           -0.9257    -0.5569     0.0082 H       
  35 H35            3.3407    -0.4970    -0.0321 H       
  36 H36            1.1559     3.1654     0.0080 H       
  37 H37            2.5018     3.7948    -0.9245 H       
  38 H38            4.1705     4.2666    -0.4611 H       
  39 H39            4.9131     2.2940    -4.6720 H       
  40 H40            2.7409     5.3600    -2.6005 H       
  41 H41            2.4198     6.5629    -4.7182 H       
  42 H42            4.5953     3.4994    -6.7887 H       
  43 H43            4.2914     4.4944    -8.2947 H       
  44 H44            2.5426     6.1465    -9.7741 H       
  45 H45            4.0576     7.0390    -9.4975 H       
  46 H46            7.2207     4.9674   -12.0653 H       
  47 H47            5.9899     3.3819   -13.4918 H       
  48 H48            3.5640     3.0151   -13.0886 H       
  49 H49            2.4624     4.2656   -11.2439 H       
@<TRIPOS>BOND
   1    1    2 ar
   2    1    6 ar
   3    1   33 1
   4    2    3 ar
   5    2   34 1
   6    3    4 ar
   7    3   25 1
   8    4    5 ar
   9    4   35 1
  10    5    6 ar
  11    5    7 1
  12    6   36 1
  13    7    8 1
  14    7    9 1
  15    7   21 1
  16    8   11 1
  17    9   10 1
  18    9   37 1
  19    9   38 1
  20   10   11 2
  21   10   12 1
  22   12   13 ar
  23   12   14 ar
  24   13   17 ar
  25   13   39 1
  26   14   15 ar
  27   14   40 1
  28   15   16 ar
  29   15   41 1
  30   16   17 ar
  31   16   18 1
  32   17   42 1
  33   18   19 2
  34   18   20 am
  35   20   26 1
  36   20   43 1
  37   21   22 1
  38   21   23 1
  39   21   24 1
  40   26   27 1
  41   26   44 1
  42   26   45 1
  43   27   28 ar
  44   27   32 ar
  45   28   29 ar
  46   29   30 ar
  47   29   46 1
  48   30   31 ar
  49   30   47 1
  50   31   32 ar
  51   31   48 1
  52   32   49 1

#	End of record

