#	Name: ASD01882991
#	Creating user name:	WinNT
#	Creation time:	15. 06. 2019 19:45

#	Modifying user name:	WinNT
#	Modification time:	15. 06. 2019 19:45

#	Program:	/corina/corina34_cracker 3.40 0067  02.08.2006

@<TRIPOS>MOLECULE
ASD01882991
  45   47    0    0    0
SMALL
NO_CHARGES


@<TRIPOS>ATOM
   1 C1            -0.0688     1.3123     0.4291 C.2     
   2 C2             0.0895    -0.0110     0.8777 C.2     
   3 C3            -0.9754    -0.6231     1.5678 C.2     
   4 C4            -2.1208     0.0615     1.7866 C.2     
   5 N5            -2.2746     1.3392     1.3534 N.am    
   6 C6            -1.2908     1.9784     0.6940 C.2     
   7 C7            -3.5353     2.0383     1.6144 C.3     
   8 C8            -3.4449     2.7693     2.9555 C.3     
   9 C9             0.9865     1.9754    -0.2762 C.1     
  10 N10            1.8236     2.5015    -0.8357 N.1     
  11 O11           -1.4545     3.1262     0.3167 O.2     
  12 C12           -4.7616     3.4994     3.2280 C.3     
  13 C13            1.3476    -0.7452     0.6298 C.ar    
  14 C14           -4.6712     4.2304     4.5691 C.3     
  15 C15            2.1558    -1.1316     1.7018 C.ar    
  16 C16            3.3278    -1.8157     1.4667 C.ar    
  17 C17            3.7068    -2.1218     0.1649 C.ar    
  18 C18            2.9054    -1.7391    -0.9043 C.ar    
  19 C19            1.7290    -1.0597    -0.6769 C.ar    
  20 O20            4.8629    -2.7959    -0.0629 O.3     
  21 C21            4.8188    -4.1540    -0.0694 C.ar    
  22 C22            3.6032    -4.8212     0.0442 C.ar    
  23 C23            3.6090    -6.2068     0.0326 C.ar    
  24 C24            4.8122    -6.8757    -0.0904 C.ar    
  25 N25            5.9476    -6.2131    -0.1957 N.ar    
  26 C26            5.9851    -4.8955    -0.1952 C.ar    
  27 H27           -0.8771    -1.6388     1.9215 H       
  28 H28           -2.9303    -0.4181     2.3168 H       
  29 H29           -3.7220     2.7600     0.8191 H       
  30 H30           -4.3510     1.3161     1.6485 H       
  31 H31           -3.2583     2.0477     3.7508 H       
  32 H32           -2.6293     3.4915     2.9214 H       
  33 H33           -4.9483     4.2211     2.4328 H       
  34 H34           -5.5772     2.7772     3.2621 H       
  35 H35           -3.8556     4.9526     4.5350 H       
  36 H36           -5.6092     4.7506     4.7633 H       
  37 H37           -4.4845     3.5088     5.3644 H       
  38 H38            1.8622    -0.8938     2.7136 H       
  39 H39            3.9534    -2.1145     2.2948 H       
  40 H40            3.2034    -1.9784    -1.9144 H       
  41 H41            1.1067    -0.7629    -1.5081 H       
  42 H42            2.6778    -4.2725     0.1394 H       
  43 H43            2.6840    -6.7577     0.1190 H       
  44 H44            4.8228    -7.9556    -0.1000 H       
  45 H45            6.9343    -4.3878    -0.2834 H       
@<TRIPOS>BOND
   1    1    2 2
   2    1    9 1
   3    1    6 1
   4    2    3 1
   5    2   13 1
   6    3    4 2
   7    3   27 1
   8    4    5 1
   9    4   28 1
  10    5    7 1
  11    5    6 am
  12    6   11 2
  13    7    8 1
  14    7   29 1
  15    7   30 1
  16    8   12 1
  17    8   31 1
  18    8   32 1
  19    9   10 3
  20   12   14 1
  21   12   33 1
  22   12   34 1
  23   13   15 ar
  24   13   19 ar
  25   14   35 1
  26   14   36 1
  27   14   37 1
  28   15   16 ar
  29   15   38 1
  30   16   17 ar
  31   16   39 1
  32   17   18 ar
  33   17   20 1
  34   18   19 ar
  35   18   40 1
  36   19   41 1
  37   20   21 1
  38   21   22 ar
  39   21   26 ar
  40   22   23 ar
  41   22   42 1
  42   23   24 ar
  43   23   43 1
  44   24   25 ar
  45   24   44 1
  46   25   26 ar
  47   26   45 1

#	End of record

