#	Name: ASD00843437
#	Creating user name:	WinNT
#	Creation time:	15. 06. 2019 18:46

#	Modifying user name:	WinNT
#	Modification time:	15. 06. 2019 18:46

#	Program:	/corina/corina34_cracker 3.40 0067  02.08.2006

@<TRIPOS>MOLECULE
ASD00843437
  90   95    0    0    0
SMALL
NO_CHARGES


@<TRIPOS>ATOM
   1 F1             5.6969    -2.5329    -1.9401 F       
   2 N2             0.9410     1.0811    -0.3015 N.ar    
   3 C3             1.1028    -0.2043    -0.5672 C.ar    
   4 C4             0.9443    -1.1585     0.4298 C.ar    
   5 C5             0.6139    -0.7472     1.7090 C.ar    
   6 C6             0.4529     0.6111     1.9469 C.ar    
   7 C7             0.6259     1.5038     0.9082 C.ar    
   8 C8             1.1293    -2.6222     0.1223 C.3     
   9 C9             0.7652    -3.4669     1.3247 C.2     
  10 C10            0.2870    -3.0244    -1.0901 C.3     
  11 C11           -1.1520    -2.6473    -0.8494 C.2     
  12 N12           -2.0998    -3.0034    -1.7389 N.am    
  13 O13           -1.4573    -2.0234     0.1448 O.2     
  14 C14           -3.4875    -2.5489    -1.5766 C.3     
  15 C15           -4.4128    -3.7695    -1.6051 C.3     
  16 C16           -4.1586    -4.5674    -2.8861 C.3     
  17 C17           -2.7095    -5.0592    -2.9036 C.3     
  18 C18           -1.7638    -3.8486    -2.8928 C.3     
  19 N19           -5.0674    -5.7206    -2.9328 N.3     
  20 C20           -4.9349    -6.4443    -4.2049 C.3     
  21 C21           -5.8373    -7.6803    -4.1820 C.3     
  22 N22           -7.2288    -7.2636    -3.9589 N.3     
  23 C23           -7.3613    -6.5398    -2.6868 C.3     
  24 C24           -6.4589    -5.3039    -2.7097 C.3     
  25 C25           -8.1376    -8.4168    -4.0056 C.3     
  26 O26           -0.3210    -3.5260     1.8612 O.2     
  27 N27            1.8711    -4.1394     1.6854 N.am    
  28 C28            2.5890    -2.9326    -0.1170 C.ar    
  29 C29            2.9591    -3.8485     0.8598 C.ar    
  30 C30            3.4981    -2.4917    -1.0520 C.ar    
  31 C31            4.8011    -2.9631    -1.0248 C.ar    
  32 C32            5.1820    -3.8768    -0.0553 C.ar    
  33 C33            4.2701    -4.3190     0.8825 C.ar    
  34 Cl34           6.8137    -4.4686    -0.0195 Cl      
  35 C35            1.5209    -6.7884     2.3447 C.ar    
  36 C36            0.2487    -7.0310     1.8479 C.ar    
  37 C37            2.4636    -7.7984     2.3495 C.ar    
  38 C38            2.1400    -9.0498     1.8591 C.ar    
  39 C39            0.8725    -9.2942     1.3633 C.ar    
  40 C40           -0.0737    -8.2880     1.3567 C.ar    
  41 H41            0.6221   -10.2727     0.9808 H       
  42 O42           -0.6805    -6.0393     1.8425 O.3     
  43 C43           -1.9694    -6.3607     1.3160 C.3     
  44 C44           -9.5270    -7.9909    -3.5270 C.3     
  45 O45            1.4263    -0.5947    -1.8257 O.3     
  46 C46            1.5279     0.4297    -2.8168 C.3     
  47 C47            1.9995    -0.1831    -4.1371 C.3     
  48 F48            3.2095    -0.8551    -3.9334 F       
  49 F49            1.0373    -1.0858    -4.6022 F       
  50 S50            1.9364    -5.1915     2.9626 S.o2    
  51 O51            3.2994    -5.2569     3.3592 O.2     
  52 O52            0.8874    -4.8171     3.8449 O.2     
  53 H53            0.4839    -1.4664     2.5042 H       
  54 H54            0.1947     0.9655     2.9339 H       
  55 H55            0.5021     2.5615     1.0880 H       
  56 H56            0.6550    -2.5067    -1.9759 H       
  57 H57            0.3599    -4.1012    -1.2420 H       
  58 H58           -3.5936    -2.0322    -0.6226 H       
  59 H59           -3.7485    -1.8734    -2.3913 H       
  60 H60           -4.2114    -4.3990    -0.7384 H       
  61 H61           -5.4513    -3.4393    -1.5822 H       
  62 H62           -4.3362    -3.9300    -3.7523 H       
  63 H63           -2.5241    -5.6766    -2.0246 H       
  64 H64           -2.5357    -5.6471    -3.8049 H       
  65 H65           -1.8855    -3.2816    -3.8157 H       
  66 H66           -0.7327    -4.1912    -2.8053 H       
  67 H67           -5.2316    -5.7926    -5.0267 H       
  68 H68           -3.8985    -6.7532    -4.3413 H       
  69 H69           -5.7626    -8.2028    -5.1356 H       
  70 H70           -5.5232    -8.3449    -3.3772 H       
  71 H71           -8.3976    -6.2309    -2.5504 H       
  72 H72           -7.0646    -7.1915    -1.8650 H       
  73 H73           -6.5336    -4.7813    -1.7561 H       
  74 H74           -6.7729    -4.6392    -3.5146 H       
  75 H75           -8.2033    -8.7864    -5.0289 H       
  76 H76           -7.7564    -9.2063    -3.3579 H       
  77 H77            3.1963    -1.7797    -1.8059 H       
  78 H78            4.5739    -5.0313     1.6353 H       
  79 H79            3.4542    -7.6101     2.7362 H       
  80 H80            2.8785    -9.8379     1.8631 H       
  81 H81           -1.0637    -8.4795     0.9700 H       
  82 H82           -1.8695    -6.6741     0.2768 H       
  83 H83           -2.4085    -7.1703     1.8990 H       
  84 H84           -2.6134    -5.4830     1.3705 H       
  85 H85           -9.4613    -7.6213    -2.5037 H       
  86 H86           -9.9082    -7.2014    -4.1747 H       
  87 H87          -10.2013    -8.8465    -3.5617 H       
  88 H88            0.5525     0.8947    -2.9600 H       
  89 H89            2.2448     1.1825    -2.4891 H       
  90 H90            2.1424     0.6073    -4.8739 H       
@<TRIPOS>BOND
   1    1   31 1
   2    2    3 ar
   3    2    7 ar
   4    3    4 ar
   5    3   45 1
   6    4    5 ar
   7    4    8 1
   8    5    6 ar
   9    5   53 1
  10    6    7 ar
  11    6   54 1
  12    7   55 1
  13    8    9 1
  14    8   10 1
  15    8   28 1
  16    9   26 2
  17    9   27 am
  18   10   11 1
  19   10   56 1
  20   10   57 1
  21   11   12 am
  22   11   13 2
  23   12   14 1
  24   12   18 1
  25   14   15 1
  26   14   58 1
  27   14   59 1
  28   15   16 1
  29   15   60 1
  30   15   61 1
  31   16   17 1
  32   16   19 1
  33   16   62 1
  34   17   18 1
  35   17   63 1
  36   17   64 1
  37   18   65 1
  38   18   66 1
  39   19   20 1
  40   19   24 1
  41   20   21 1
  42   20   67 1
  43   20   68 1
  44   21   22 1
  45   21   69 1
  46   21   70 1
  47   22   23 1
  48   22   25 1
  49   23   24 1
  50   23   71 1
  51   23   72 1
  52   24   73 1
  53   24   74 1
  54   25   44 1
  55   25   75 1
  56   25   76 1
  57   27   50 am
  58   27   29 1
  59   28   29 ar
  60   28   30 ar
  61   29   33 ar
  62   30   31 ar
  63   30   77 1
  64   31   32 ar
  65   32   33 ar
  66   32   34 1
  67   33   78 1
  68   35   36 ar
  69   35   37 ar
  70   35   50 1
  71   36   42 1
  72   36   40 ar
  73   37   38 ar
  74   37   79 1
  75   38   39 ar
  76   38   80 1
  77   39   40 ar
  78   39   41 1
  79   40   81 1
  80   42   43 1
  81   43   82 1
  82   43   83 1
  83   43   84 1
  84   44   85 1
  85   44   86 1
  86   44   87 1
  87   45   46 1
  88   46   47 1
  89   46   88 1
  90   46   89 1
  91   47   48 1
  92   47   49 1
  93   47   90 1
  94   50   51 2
  95   50   52 2

#	End of record

