#	Name: ASD01914209
#	Creating user name:	WinNT
#	Creation time:	15. 06. 2019 20:03

#	Modifying user name:	WinNT
#	Modification time:	15. 06. 2019 20:03

#	Program:	/corina/corina34_cracker 3.40 0067  02.08.2006

@<TRIPOS>MOLECULE
ASD01914209
  33   35    0    0    0
SMALL
NO_CHARGES


@<TRIPOS>ATOM
   1 S1            -0.0218     1.7538     0.0117 S.3     
   2 C2             0.0021    -0.0041     0.0020 C.2     
   3 N3             1.2163    -0.4363    -0.0119 N.2     
   4 C4             2.2098     0.4750    -0.0165 C.ar    
   5 C5             1.7397     1.7917    -0.0049 C.ar    
   6 C6             2.6336     2.8590    -0.0077 C.ar    
   7 C7             3.9913     2.6259    -0.0224 C.ar    
   8 C8             4.4708     1.3248    -0.0340 C.ar    
   9 C9             3.6040     0.2608    -0.0310 C.ar    
  10 N10           -1.1201    -0.8073     0.0088 N.pl3   
  11 C11           -0.9773    -2.2653    -0.0004 C.3     
  12 C12           -2.3632    -2.9134     0.0099 C.3     
  13 C13           -2.2198    -4.3784     0.0006 C.1     
  14 C14           -2.1055    -5.5468    -0.0068 C.1     
  15 C15           -1.9660    -6.9720    -0.0159 C.ar    
  16 C16           -3.1042    -7.7791    -0.0089 C.ar    
  17 C17           -2.9527    -9.1542    -0.0178 C.ar    
  18 C18           -1.6679    -9.6796    -0.0333 C.ar    
  19 C19           -0.5837    -8.8216    -0.0395 C.ar    
  20 N20           -0.7544    -7.5153    -0.0362 N.ar    
  21 H21            2.2615     3.8729     0.0013 H       
  22 H22            4.6819     3.4562    -0.0253 H       
  23 H23            5.5360     1.1472    -0.0458 H       
  24 H24            3.9918    -0.7471    -0.0397 H       
  25 H25           -2.0033    -0.4065     0.0197 H       
  26 H26           -0.4394    -2.5720    -0.8974 H       
  27 H27           -0.4218    -2.5815     0.8824 H       
  28 H28           -2.9012    -2.6067     0.9069 H       
  29 H29           -2.9188    -2.5971    -0.8730 H       
  30 H30           -4.0893    -7.3366     0.0036 H       
  31 H31           -3.8150    -9.8046    -0.0124 H       
  32 H32           -1.5166   -10.7489    -0.0402 H       
  33 H33            0.4169    -9.2279    -0.0512 H       
@<TRIPOS>BOND
   1    1    2 1
   2    1    5 1
   3    2    3 2
   4    2   10 1
   5    3    4 1
   6    4    5 ar
   7    4    9 ar
   8    5    6 ar
   9    6    7 ar
  10    6   21 1
  11    7    8 ar
  12    7   22 1
  13    8    9 ar
  14    8   23 1
  15    9   24 1
  16   10   11 1
  17   10   25 1
  18   11   12 1
  19   11   26 1
  20   11   27 1
  21   12   13 1
  22   12   28 1
  23   12   29 1
  24   13   14 3
  25   14   15 1
  26   15   16 ar
  27   15   20 ar
  28   16   17 ar
  29   16   30 1
  30   17   18 ar
  31   17   31 1
  32   18   19 ar
  33   18   32 1
  34   19   20 ar
  35   19   33 1

#	End of record

