#	Name: ASD01320060
#	Creating user name:	WinNT
#	Creation time:	15. 06. 2019 19:15

#	Modifying user name:	WinNT
#	Modification time:	15. 06. 2019 19:15

#	Program:	/corina/corina34_cracker 3.40 0067  02.08.2006

@<TRIPOS>MOLECULE
ASD01320060
 130  138    0    0    0
SMALL
NO_CHARGES


@<TRIPOS>ATOM
   1 O1            -2.3856    -1.1337     1.1840 O.2     
   2 C2            -2.2340     0.0642     1.2270 C.2     
   3 C3            -0.8683     0.6416     1.4965 C.3     
   4 C4             0.1243    -0.4782     1.6746 C.ar    
   5 C5             0.8055    -0.9744     0.5651 C.ar    
   6 C6             1.7085    -1.9852     0.6913 C.ar    
   7 C7             1.9601    -2.5384     1.9581 C.ar    
   8 C8             1.2674    -2.0333     3.0870 C.ar    
   9 C9             0.3461    -0.9860     2.9180 C.ar    
  10 C10            1.5189    -2.5870     4.3541 C.ar    
  11 C11            2.4213    -3.5979     4.4801 C.ar    
  12 C12            3.1027    -4.0942     3.3702 C.ar    
  13 C13            2.8848    -3.5831     2.1279 C.ar    
  14 O14           -3.2808     0.8808     1.0292 O.3     
  15 C15           -4.5649     0.2551     0.7688 C.3     
  16 C16           -5.6125     1.3207     0.5736 C.2     
  17 N17           -6.9110     1.1288     0.3156 N.2     
  18 N18           -7.4889     2.2735     0.2138 N.2     
  19 N19           -6.6345     3.2196     0.3922 N.pl3   
  20 C20           -5.4258     2.6600     0.6306 C.2     
  21 C21           -6.9225     4.6554     0.3499 C.3     
  22 C22           -7.5795     4.9976    -0.9624 C.2     
  23 O23           -7.7860     4.1310    -1.7787 O.2     
  24 O24           -7.9352     6.2650    -1.2246 O.3     
  25 C25           -8.5648     6.5220    -2.5117 C.3     
  26 C26          -10.0739     6.3695    -2.3750 C.3     
  27 C27          -10.7631     6.6976    -3.6959 C.3     
  28 C28          -10.4929     8.1671    -4.0692 C.3     
  29 C29           -8.9874     8.3659    -4.1786 C.3     
  30 C30           -8.1681     7.9187    -2.9914 C.3     
  31 C31           -8.2178     8.9048    -1.8254 C.3     
  32 C32           -6.6874     7.8194    -3.4364 C.3     
  33 C33           -8.6925     9.8029    -4.6082 C.3     
  34 C34           -9.2002     9.9448    -6.0548 C.3     
  35 C35          -10.7088     9.7236    -6.1126 C.3     
  36 C36          -11.1239     8.4236    -5.4383 C.3     
  37 C37          -12.6489     8.3536    -5.3619 C.3     
  38 C38          -13.2302     8.5959    -6.7284 C.2     
  39 C39          -12.5898     9.1851    -7.6944 C.2     
  40 C40          -11.1831     9.7059    -7.5700 C.3     
  41 C41          -10.2997     8.7236    -8.3549 C.3     
  42 C42          -11.0262    11.0709    -8.2238 C.3     
  43 C43          -11.6824    11.1280    -9.6039 C.3     
  44 C44          -13.1657    10.7622    -9.5094 C.3     
  45 C45          -13.2720     9.3112    -9.0443 C.3     
  46 C46          -14.7242     8.8686    -8.9686 C.3     
  47 C47          -15.4207     9.0361   -10.3183 C.3     
  48 C48          -14.8442     8.0453   -11.3323 C.3     
  49 C49          -16.9163     8.7294   -10.1386 C.3     
  50 C50          -15.2752    10.4606   -10.8419 C.3     
  51 C51          -13.8183    10.9054   -10.8838 C.3     
  52 C52          -13.8465    11.6834    -8.5333 C.2     
  53 O53          -14.3887    11.2308    -7.5530 O.2     
  54 O54          -13.8513    13.0078    -8.7518 O.3     
  55 C55          -14.5267    13.8356    -7.7686 C.3     
  56 C56          -14.4294    15.2826    -8.1782 C.ar    
  57 C57          -15.4071    15.8413    -8.9800 C.ar    
  58 C58          -15.3177    17.1685    -9.3557 C.ar    
  59 C59          -14.2509    17.9373    -8.9293 C.ar    
  60 C60          -13.2737    17.3789    -8.1268 C.ar    
  61 C61          -13.3653    16.0527    -7.7474 C.ar    
  62 C62          -11.3963    10.9151    -5.4251 C.3     
  63 C63          -11.1236     9.0444    -2.9935 C.3     
  64 H64           -0.5652     1.2655     0.6556 H       
  65 H65           -0.9016     1.2453     2.4034 H       
  66 H66            0.6140    -0.5510    -0.4098 H       
  67 H67            2.2285    -2.3603    -0.1777 H       
  68 H68           -0.1886    -0.5909     3.7691 H       
  69 H69            0.9989    -2.2121     5.2232 H       
  70 H70            2.6126    -4.0216     5.4549 H       
  71 H71            3.8140    -4.8968     3.4979 H       
  72 H72            3.4202    -3.9778     1.2770 H       
  73 H73           -4.4957    -0.3556    -0.1313 H       
  74 H74           -4.8404    -0.3746     1.6148 H       
  75 H75           -4.4974     3.1780     0.8207 H       
  76 H76           -7.5914     4.9161     1.1700 H       
  77 H77           -5.9925     5.2155     0.4476 H       
  78 H78           -8.1928     5.7839    -3.2313 H       
  79 H79          -10.2985     5.3235    -2.1172 H       
  80 H80          -10.4496     6.9906    -1.5675 H       
  81 H81          -10.3745     6.0558    -4.4857 H       
  82 H82          -11.8377     6.5490    -3.5968 H       
  83 H83           -8.6629     7.7259    -5.0402 H       
  84 H84           -9.2262     8.9284    -1.4122 H       
  85 H85           -7.5160     8.5900    -1.0532 H       
  86 H86           -7.9467     9.8996    -2.1791 H       
  87 H87           -6.3455     8.7951    -3.7818 H       
  88 H88           -6.0755     7.4975    -2.5937 H       
  89 H89           -6.5993     7.0957    -4.2467 H       
  90 H90           -9.1711    10.5267    -3.9676 H       
  91 H91           -7.6155     9.9830    -4.6143 H       
  92 H92           -8.9621    10.9495    -6.4071 H       
  93 H93           -8.6537     9.2160    -6.6474 H       
  94 H94          -10.7970     7.5822    -6.0862 H       
  95 H95          -12.9445     7.3468    -5.0407 H       
  96 H96          -13.0667     9.0717    -4.6666 H       
  97 H97          -14.2408     8.2545    -6.9038 H       
  98 H98          -10.3897     7.7277    -7.9211 H       
  99 H99          -10.6221     8.6970    -9.3958 H       
 100 H100          -9.2607     9.0494    -8.3045 H       
 101 H101         -11.4148    11.8850    -7.6231 H       
 102 H102          -9.9473    11.2645    -8.3596 H       
 103 H103         -11.5989    12.1466    -9.9962 H       
 104 H104         -11.1837    10.4486   -10.2914 H       
 105 H105         -12.7368     8.6717    -9.7596 H       
 106 H106         -14.7580     7.8050    -8.6923 H       
 107 H107         -15.2615     9.4294    -8.2042 H       
 108 H108         -14.9979     7.0276   -10.9737 H       
 109 H109         -15.3471     8.1726   -12.2910 H       
 110 H110         -13.7769     8.2302   -11.4545 H       
 111 H111         -17.3440     9.4199    -9.4117 H       
 112 H112         -17.4282     8.8445   -11.0940 H       
 113 H113         -17.0372     7.7062    -9.7826 H       
 114 H114         -15.6853    10.5008   -11.8609 H       
 115 H115         -15.8650    11.1407   -10.2260 H       
 116 H116         -13.7704    11.9573   -11.1882 H       
 117 H117         -13.2620    10.3145   -11.6129 H       
 118 H118         -15.5755    13.5450    -7.7078 H       
 119 H119         -14.0554    13.7011    -6.7950 H       
 120 H120         -16.2405    15.2406    -9.3131 H       
 121 H121         -16.0812    17.6048    -9.9828 H       
 122 H122         -14.1807    18.9741    -9.2235 H       
 123 H123         -12.4400    17.9794    -7.7939 H       
 124 H124         -12.6018    15.6165    -7.1204 H       
 125 H125         -11.1784    11.8288    -5.9780 H       
 126 H126         -12.4737    10.7508    -5.4049 H       
 127 H127         -11.0241    11.0102    -4.4050 H       
 128 H128         -10.8193     8.6880    -2.0094 H       
 129 H129         -10.7931    10.0747    -3.1250 H       
 130 H130         -12.2094     8.9977    -3.0770 H       
@<TRIPOS>BOND
   1    1    2 2
   2    2    3 1
   3    2   14 1
   4    3    4 1
   5    3   64 1
   6    3   65 1
   7    4    5 ar
   8    4    9 ar
   9    5    6 ar
  10    5   66 1
  11    6    7 ar
  12    6   67 1
  13    7    8 ar
  14    7   13 ar
  15    8    9 ar
  16    8   10 ar
  17    9   68 1
  18   10   11 ar
  19   10   69 1
  20   11   12 ar
  21   11   70 1
  22   12   13 ar
  23   12   71 1
  24   13   72 1
  25   14   15 1
  26   15   16 1
  27   15   73 1
  28   15   74 1
  29   16   17 1
  30   16   20 2
  31   17   18 2
  32   18   19 1
  33   19   20 1
  34   19   21 1
  35   20   75 1
  36   21   22 1
  37   21   76 1
  38   21   77 1
  39   22   23 2
  40   22   24 1
  41   24   25 1
  42   25   26 1
  43   25   30 1
  44   25   78 1
  45   26   27 1
  46   26   79 1
  47   26   80 1
  48   27   28 1
  49   27   81 1
  50   27   82 1
  51   28   29 1
  52   28   63 1
  53   28   36 1
  54   29   30 1
  55   29   33 1
  56   29   83 1
  57   30   31 1
  58   30   32 1
  59   31   84 1
  60   31   85 1
  61   31   86 1
  62   32   87 1
  63   32   88 1
  64   32   89 1
  65   33   34 1
  66   33   90 1
  67   33   91 1
  68   34   35 1
  69   34   92 1
  70   34   93 1
  71   35   40 1
  72   35   62 1
  73   35   36 1
  74   36   37 1
  75   36   94 1
  76   37   38 1
  77   37   95 1
  78   37   96 1
  79   38   39 2
  80   38   97 1
  81   39   40 1
  82   39   45 1
  83   40   41 1
  84   40   42 1
  85   41   98 1
  86   41   99 1
  87   41  100 1
  88   42   43 1
  89   42  101 1
  90   42  102 1
  91   43   44 1
  92   43  103 1
  93   43  104 1
  94   44   52 1
  95   44   45 1
  96   44   51 1
  97   45   46 1
  98   45  105 1
  99   46   47 1
 100   46  106 1
 101   46  107 1
 102   47   48 1
 103   47   49 1
 104   47   50 1
 105   48  108 1
 106   48  109 1
 107   48  110 1
 108   49  111 1
 109   49  112 1
 110   49  113 1
 111   50   51 1
 112   50  114 1
 113   50  115 1
 114   51  116 1
 115   51  117 1
 116   52   53 2
 117   52   54 1
 118   54   55 1
 119   55   56 1
 120   55  118 1
 121   55  119 1
 122   56   57 ar
 123   56   61 ar
 124   57   58 ar
 125   57  120 1
 126   58   59 ar
 127   58  121 1
 128   59   60 ar
 129   59  122 1
 130   60   61 ar
 131   60  123 1
 132   61  124 1
 133   62  125 1
 134   62  126 1
 135   62  127 1
 136   63  128 1
 137   63  129 1
 138   63  130 1

#	End of record

