#	Name: ASD05430136
#	Creating user name:	WinNT
#	Creation time:	15. 06. 2019 20:59

#	Modifying user name:	WinNT
#	Modification time:	15. 06. 2019 20:59

#	Program:	/corina/corina34_cracker 3.40 0067  02.08.2006

@<TRIPOS>MOLECULE
ASD05430136
  68   74    0    0    0
SMALL
NO_CHARGES


@<TRIPOS>ATOM
   1 C1             0.1761     0.9130    -0.0505 C.ar    
   2 C2             0.2090    -0.2016    -0.8902 C.ar    
   3 C3             1.3911    -0.5696    -1.5142 C.ar    
   4 C4             2.5496     0.1564    -1.3166 C.ar    
   5 C5             2.5441     1.2747    -0.4822 C.ar    
   6 C6             1.3447     1.6578     0.1577 C.ar    
   7 C7             5.0354    -0.0995    -0.1220 C.3     
   8 C8             4.9609     1.4105    -0.1666 C.2     
   9 C9             3.7748     2.0466    -0.2711 C.2     
  10 C10            6.3597    -0.5414     0.4919 C.3     
  11 C11            6.9486     0.4373     1.5052 C.3     
  12 N12            7.1630     1.7305     0.8524 N.pl3   
  13 C13            6.2212     2.1633    -0.0929 C.2     
  14 C14            9.3839     1.7533     1.8281 C.ar    
  15 C15           10.2774     1.0490     1.0428 C.ar    
  16 C16           11.2712     0.2927     1.6345 C.ar    
  17 C17           11.3718     0.2405     3.0145 C.ar    
  18 C18           10.4763     0.9463     3.8000 C.ar    
  19 C19            9.4834     1.7020     3.2060 C.ar    
  20 N20           -0.9563    -0.9511    -1.1028 N.pl3   
  21 C21           -1.4710    -1.3309    -2.3152 C.2     
  22 C22           -2.5923    -2.0321    -2.0606 C.2     
  23 N23           -2.7621    -2.0821    -0.7312 N.2     
  24 C24           -1.7854    -1.4432    -0.1462 C.2     
  25 C25           -3.4997    -2.6526    -3.0914 C.3     
  26 N26            6.4755     3.1605    -0.8809 N.2     
  27 N27           -0.2725     2.6198     1.3501 N.2     
  28 O28           -0.8022     1.4996     0.6695 O.3     
  29 C29            8.3044     2.5827     1.1816 C.3     
  30 C30            8.8425     3.2102    -0.1090 C.3     
  31 N31            7.7315     3.7783    -0.8762 N.pl3   
  32 F32           12.3427    -0.4989     3.5940 F       
  33 C33            6.3414    -1.9948     0.9945 C.3     
  34 O34            7.6383    -2.1046     0.3732 O.3     
  35 C35            7.3824    -1.0256    -0.5491 C.3     
  36 C36            7.8592     3.6877     2.1416 C.3     
  37 O37            8.9764     4.5192     2.4618 O.3     
  38 C38            7.9370     5.0072    -1.6467 C.3     
  39 C39            0.9900     2.7430     1.0707 C.2     
  40 H40            1.4064    -1.4337    -2.1618 H       
  41 H41            3.4628    -0.1429    -1.8094 H       
  42 H42            4.2120    -0.4843     0.4795 H       
  43 H43            4.9566    -0.4952    -1.1345 H       
  44 H44            3.7313     3.1233    -0.1994 H       
  45 H45            6.2565     0.5598     2.3384 H       
  46 H46            7.8997     0.0526     1.8733 H       
  47 H47           10.1985     1.0896    -0.0335 H       
  48 H48           11.9689    -0.2578     1.0208 H       
  49 H49           10.5539     0.9063     4.8765 H       
  50 H50            8.7848     2.2526     3.8186 H       
  51 H51           -1.0570    -1.1098    -3.2879 H       
  52 H52           -1.6617    -1.3199     0.9196 H       
  53 H53           -3.1679    -3.6691    -3.3028 H       
  54 H54           -4.5206    -2.6755    -2.7101 H       
  55 H55           -3.4671    -2.0619    -4.0069 H       
  56 H56            9.5535     3.9983     0.1391 H       
  57 H57            9.3410     2.4454    -0.7046 H       
  58 H58            6.3631    -2.0864     2.0804 H       
  59 H59            5.5748    -2.6134     0.5278 H       
  60 H60            6.9359    -1.3463    -1.4903 H       
  61 H61            8.2277    -0.3508    -0.6841 H       
  62 H62            7.0826     4.2888     1.6685 H       
  63 H63            7.4663     3.2396     3.0542 H       
  64 H64            8.7670     5.2430     3.0678 H       
  65 H65            8.2662     4.7535    -2.6543 H       
  66 H66            7.0013     5.5638    -1.6995 H       
  67 H67            8.6965     5.6188    -1.1595 H       
  68 H68            1.6554     3.5077     1.4435 H       
@<TRIPOS>BOND
   1    1    2 ar
   2    1    6 ar
   3    1   28 1
   4    2    3 ar
   5    2   20 1
   6    3    4 ar
   7    3   40 1
   8    4    5 ar
   9    4   41 1
  10    5    6 ar
  11    5    9 1
  12    6   39 1
  13    7    8 1
  14    7   10 1
  15    7   42 1
  16    7   43 1
  17    8    9 2
  18    8   13 1
  19    9   44 1
  20   10   11 1
  21   10   33 1
  22   10   35 1
  23   11   12 1
  24   11   45 1
  25   11   46 1
  26   12   13 1
  27   12   29 1
  28   13   26 2
  29   14   15 ar
  30   14   19 ar
  31   14   29 1
  32   15   16 ar
  33   15   47 1
  34   16   17 ar
  35   16   48 1
  36   17   18 ar
  37   17   32 1
  38   18   19 ar
  39   18   49 1
  40   19   50 1
  41   20   21 1
  42   20   24 1
  43   21   22 2
  44   21   51 1
  45   22   23 1
  46   22   25 1
  47   23   24 2
  48   24   52 1
  49   25   53 1
  50   25   54 1
  51   25   55 1
  52   26   31 1
  53   27   28 1
  54   27   39 2
  55   29   30 1
  56   29   36 1
  57   30   31 1
  58   30   56 1
  59   30   57 1
  60   31   38 1
  61   33   34 1
  62   33   58 1
  63   33   59 1
  64   34   35 1
  65   35   60 1
  66   35   61 1
  67   36   37 1
  68   36   62 1
  69   36   63 1
  70   37   64 1
  71   38   65 1
  72   38   66 1
  73   38   67 1
  74   39   68 1

#	End of record

