#	Name: ASD01882614
#	Creating user name:	WinNT
#	Creation time:	15. 06. 2019 19:44

#	Modifying user name:	WinNT
#	Modification time:	15. 06. 2019 19:44

#	Program:	/corina/corina34_cracker 3.40 0067  02.08.2006

@<TRIPOS>MOLECULE
ASD01882614
  66   69    0    0    0
SMALL
NO_CHARGES


@<TRIPOS>ATOM
   1 N1            -0.0159     1.3196     0.0093 N.ar    
   2 C2             0.0021    -0.0041     0.0020 C.ar    
   3 C3             1.2037    -0.7040    -0.0128 C.ar    
   4 C4             2.3966    -0.0010    -0.0204 C.ar    
   5 C5             1.1035     2.0275     0.0024 C.ar    
   6 N6             1.3603     3.3925     0.0065 N.am    
   7 C7             2.3439     1.3865    -0.0129 C.ar    
   8 N8             3.3170     2.3850    -0.0170 N.am    
   9 C9             2.6931     3.5785    -0.0056 C.2     
  10 C10            0.3492     4.4526     0.0216 C.3     
  11 C11            4.7664     2.1727    -0.0307 C.3     
  12 C12            5.2583     2.1053    -1.4779 C.3     
  13 C13            4.9285     3.4185    -2.1903 C.3     
  14 C14            6.7721     1.8835    -1.4922 C.3     
  15 C15            4.5663     0.9464    -2.1983 C.3     
  16 N16           -1.2000    -0.7059     0.0097 N.3     
  17 O17            3.2500     4.6605    -0.0064 O.2     
  18 C18           -3.6441    -0.6009    -0.0901 C.3     
  19 N19           -3.6674    -1.5182     1.0685 N.am    
  20 C20           -2.4964    -1.4284     1.9678 C.3     
  21 C21           -1.2412    -1.6658     1.1182 C.3     
  22 C22           -2.3453     0.2124     0.0256 C.3     
  23 C23           -2.4417     0.0038     2.5181 C.3     
  24 C24           -2.3564     0.9856     1.3469 C.3     
  25 C25           -4.6836    -2.3754     1.2901 C.2     
  26 O26           -4.6582    -3.1108     2.2571 O.2     
  27 O27           -5.7269    -2.4168     0.4401 O.3     
  28 C28           -6.7852    -3.3642     0.7412 C.3     
  29 C29           -7.3841    -3.0414     2.1116 C.3     
  30 C30           -7.8758    -3.2672    -0.3276 C.3     
  31 C31           -6.2111    -4.7823     0.7567 C.3     
  32 H32            1.2064    -1.7840    -0.0179 H       
  33 H33            3.3443    -0.5188    -0.0315 H       
  34 H34            0.1086     4.7105     1.0529 H       
  35 H35            0.7374     5.3323    -0.4918 H       
  36 H36           -0.5506     4.1038    -0.4851 H       
  37 H37            5.2595     2.9983     0.4825 H       
  38 H38            5.0015     1.2371     0.4769 H       
  39 H39            5.4215     4.2441    -1.6771 H       
  40 H40            5.2789     3.3705    -3.2214 H       
  41 H41            3.8500     3.5764    -2.1801 H       
  42 H42            7.0071     0.9480    -0.9847 H       
  43 H43            7.1225     1.8355    -2.5233 H       
  44 H44            7.2651     2.7091    -0.9790 H       
  45 H45            3.4878     1.1044    -2.1881 H       
  46 H46            4.9167     0.8984    -3.2293 H       
  47 H47            4.8013     0.0108    -1.6908 H       
  48 H48           -3.6464    -1.1715    -1.0188 H       
  49 H49           -4.5064     0.0650    -0.0570 H       
  50 H50           -2.5662    -2.1622     2.7708 H       
  51 H51           -1.2608    -2.6797     0.7186 H       
  52 H52           -0.3544    -1.5398     1.7393 H       
  53 H53           -2.2711     0.9049    -0.8129 H       
  54 H54           -3.3418     0.2060     3.0987 H       
  55 H55           -1.5633     0.1169     3.1535 H       
  56 H56           -1.4418     1.5724     1.4314 H       
  57 H57           -3.2180     1.6528     1.3695 H       
  58 H58           -7.7931    -2.0311     2.1006 H       
  59 H59           -8.1786    -3.7526     2.3376 H       
  60 H60           -6.6072    -3.1105     2.8730 H       
  61 H61           -7.4492    -3.4972    -1.3039 H       
  62 H62           -8.6703    -3.9784    -0.1016 H       
  63 H63           -8.2848    -2.2569    -0.3386 H       
  64 H64           -5.4342    -4.8514     1.5181 H       
  65 H65           -7.0056    -5.4935     0.9827 H       
  66 H66           -5.7845    -5.0123    -0.2196 H       
@<TRIPOS>BOND
   1    1    2 ar
   2    1    5 ar
   3    2    3 ar
   4    2   16 1
   5    3    4 ar
   6    3   32 1
   7    4    7 ar
   8    4   33 1
   9    5    7 ar
  10    5    6 1
  11    6    9 am
  12    6   10 1
  13    7    8 1
  14    8    9 am
  15    8   11 1
  16    9   17 2
  17   10   34 1
  18   10   35 1
  19   10   36 1
  20   11   12 1
  21   11   37 1
  22   11   38 1
  23   12   13 1
  24   12   14 1
  25   12   15 1
  26   13   39 1
  27   13   40 1
  28   13   41 1
  29   14   42 1
  30   14   43 1
  31   14   44 1
  32   15   45 1
  33   15   46 1
  34   15   47 1
  35   16   22 1
  36   16   21 1
  37   18   19 1
  38   18   22 1
  39   18   48 1
  40   18   49 1
  41   19   20 1
  42   19   25 am
  43   20   21 1
  44   20   23 1
  45   20   50 1
  46   21   51 1
  47   21   52 1
  48   22   24 1
  49   22   53 1
  50   23   24 1
  51   23   54 1
  52   23   55 1
  53   24   56 1
  54   24   57 1
  55   25   26 2
  56   25   27 1
  57   27   28 1
  58   28   29 1
  59   28   30 1
  60   28   31 1
  61   29   58 1
  62   29   59 1
  63   29   60 1
  64   30   61 1
  65   30   62 1
  66   30   63 1
  67   31   64 1
  68   31   65 1
  69   31   66 1

#	End of record

