#	Name: ASD02440022
#	Creating user name:	WinNT
#	Creation time:	15. 06. 2019 20:21

#	Modifying user name:	WinNT
#	Modification time:	15. 06. 2019 20:21

#	Program:	/corina/corina34_cracker 3.40 0067  02.08.2006

@<TRIPOS>MOLECULE
ASD02440022
  82   86    0    0    0
SMALL
NO_CHARGES


@<TRIPOS>ATOM
   1 C1             1.4746     2.8583     0.3450 C.3     
   2 C2             0.6745     1.6762    -0.1921 C.3     
   3 C3             0.6840     0.5036     0.7961 C.3     
   4 C4             2.0949     0.1694     1.2271 C.3     
   5 C5             2.9364     1.3451     1.7084 C.3     
   6 C6             2.9142     2.4329     0.6183 C.3     
   7 C7             2.1563    -0.9562     2.2571 C.3     
   8 C8             3.5999    -1.4881     2.2583 C.3     
   9 C9             4.5750    -0.3928     2.6791 C.3     
  10 C10            4.3864     0.8811     1.8658 C.3     
  11 C11            6.0198    -0.8769     2.5347 C.3     
  12 C12            7.0029     0.2633     2.5773 C.2     
  13 C13            6.6709     1.5199     2.5486 C.2     
  14 C14            5.2443     1.9969     2.4658 C.3     
  15 C15            6.3632    -1.9427     3.5676 C.3     
  16 C16            7.8513    -2.3023     3.5436 C.3     
  17 C17            8.7045    -1.0538     3.7820 C.3     
  18 C18            8.4795    -0.0923     2.6153 C.3     
  19 C19           10.1820    -1.4388     3.8468 C.3     
  20 C20           11.0585    -0.1979     3.9962 C.3     
  21 C21           10.8163     0.7901     2.8567 C.3     
  22 C22            9.3341     1.1563     2.7695 C.3     
  23 C23           11.6200     2.0691     3.1403 C.3     
  24 C24           11.2982     0.1940     1.5350 C.3     
  25 C25            8.2941    -0.4032     5.1019 C.3     
  26 O26            8.4940    -1.3292     6.1718 O.3     
  27 C27            6.1784    -1.5172     1.1467 C.3     
  28 C28            4.3388    -0.1011     4.1708 C.3     
  29 C29            2.4095     1.9699     2.9952 C.3     
  30 C30           -0.2629     0.7848     1.9575 C.3     
  31 C31            0.1130    -0.7113     0.0238 C.3     
  32 O32           -0.6770     2.0846    -0.4198 O.3     
  33 H33            1.4900     3.6477    -0.4223 H       
  34 H34            1.0076     3.2740     1.2300 H       
  35 H35            1.1091     1.3458    -1.1394 H       
  36 H36            2.6173    -0.2233     0.3165 H       
  37 H37            3.3582     2.0304    -0.2910 H       
  38 H38            3.4927     3.2897     0.9572 H       
  39 H39            1.8815    -0.6169     3.2446 H       
  40 H40            1.4960    -1.7752     1.9664 H       
  41 H41            3.6571    -2.3204     2.9620 H       
  42 H42            3.7936    -1.8529     1.2533 H       
  43 H43            4.7650     0.6930     0.8403 H       
  44 H44            7.4460     2.2715     2.5817 H       
  45 H45            5.2142     2.8681     1.8012 H       
  46 H46            4.9103     2.2993     3.4498 H       
  47 H47            6.0947    -1.6693     4.5808 H       
  48 H48            5.7964    -2.8574     3.3207 H       
  49 H49            8.0565    -3.0242     4.3403 H       
  50 H50            8.1194    -2.7457     2.5879 H       
  51 H51            8.7365    -0.6012     1.6800 H       
  52 H52           10.3364    -2.0942     4.7104 H       
  53 H53           10.4538    -1.9887     2.9473 H       
  54 H54           10.8645     0.2903     4.9506 H       
  55 H55           12.1132    -0.5021     3.9801 H       
  56 H56            9.1905     1.7940     1.8854 H       
  57 H57            9.0401     1.7284     3.6472 H       
  58 H58           12.6806     1.8255     3.2020 H       
  59 H59           11.4581     2.7859     2.3353 H       
  60 H60           11.2912     2.5028     4.0847 H       
  61 H61           10.7528    -0.7276     1.3318 H       
  62 H62           11.1210     0.9063     0.7292 H       
  63 H63           12.3646    -0.0219     1.6012 H       
  64 H64            8.9009     0.4859     5.2729 H       
  65 H65            7.2420    -0.1219     5.0567 H       
  66 H66            8.2536    -0.9827     7.0420 H       
  67 H67            5.9534    -0.7782     0.3777 H       
  68 H68            7.2027    -1.8692     1.0238 H       
  69 H69            5.4916    -2.3585     1.0541 H       
  70 H70            4.5771    -0.9888     4.7568 H       
  71 H71            4.9777     0.7241     4.4852 H       
  72 H72            3.2942     0.1681     4.3274 H       
  73 H73            2.1829     1.1832     3.7148 H       
  74 H74            3.1649     2.6363     3.4114 H       
  75 H75            1.5039     2.5369     2.7795 H       
  76 H76           -1.2899     0.8028     1.5927 H       
  77 H77           -0.1581     0.0026     2.7093 H       
  78 H78           -0.0178     1.7499     2.4007 H       
  79 H79            0.7424    -0.9204    -0.8412 H       
  80 H80            0.0945    -1.5823     0.6789 H       
  81 H81           -0.9000    -0.4861    -0.3099 H       
  82 H82           -0.7678     2.8059    -1.0575 H       
@<TRIPOS>BOND
   1    1    2 1
   2    1    6 1
   3    1   33 1
   4    1   34 1
   5    2    3 1
   6    2   32 1
   7    2   35 1
   8    3    4 1
   9    3   30 1
  10    3   31 1
  11    4    5 1
  12    4    7 1
  13    4   36 1
  14    5    6 1
  15    5   29 1
  16    5   10 1
  17    6   37 1
  18    6   38 1
  19    7    8 1
  20    7   39 1
  21    7   40 1
  22    8    9 1
  23    8   41 1
  24    8   42 1
  25    9   10 1
  26    9   11 1
  27    9   28 1
  28   10   14 1
  29   10   43 1
  30   11   12 1
  31   11   15 1
  32   11   27 1
  33   12   13 2
  34   12   18 1
  35   13   14 1
  36   13   44 1
  37   14   45 1
  38   14   46 1
  39   15   16 1
  40   15   47 1
  41   15   48 1
  42   16   17 1
  43   16   49 1
  44   16   50 1
  45   17   18 1
  46   17   19 1
  47   17   25 1
  48   18   22 1
  49   18   51 1
  50   19   20 1
  51   19   52 1
  52   19   53 1
  53   20   21 1
  54   20   54 1
  55   20   55 1
  56   21   22 1
  57   21   23 1
  58   21   24 1
  59   22   56 1
  60   22   57 1
  61   23   58 1
  62   23   59 1
  63   23   60 1
  64   24   61 1
  65   24   62 1
  66   24   63 1
  67   25   26 1
  68   25   64 1
  69   25   65 1
  70   26   66 1
  71   27   67 1
  72   27   68 1
  73   27   69 1
  74   28   70 1
  75   28   71 1
  76   28   72 1
  77   29   73 1
  78   29   74 1
  79   29   75 1
  80   30   76 1
  81   30   77 1
  82   30   78 1
  83   31   79 1
  84   31   80 1
  85   31   81 1
  86   32   82 1

#	End of record

