#	Name: ASD01882220
#	Creating user name:	WinNT
#	Creation time:	15. 06. 2019 19:44

#	Modifying user name:	WinNT
#	Modification time:	15. 06. 2019 19:44

#	Program:	/corina/corina34_cracker 3.40 0067  02.08.2006

@<TRIPOS>MOLECULE
ASD01882220
  54   56    0    0    0
SMALL
NO_CHARGES


@<TRIPOS>ATOM
   1 C1            -0.0187     1.5266     0.0104 C.3     
   2 C2             0.0021    -0.0041     0.0020 C.3     
   3 C3             1.0008    -0.5190     0.9955 C.2     
   4 C4             1.9825     0.1926     1.4955 C.2     
   5 C5             2.2215     1.6351     1.1457 C.3     
   6 N6             1.3763     1.9998    -0.0003 N.am    
   7 C7             1.8585     2.7372    -1.0203 C.2     
   8 O8             1.1383     3.0244    -1.9559 O.2     
   9 O9             3.1380     3.1556    -1.0025 O.3     
  10 C10            0.8702    -1.9218     1.4403 C.ar    
  11 C11            1.7530    -2.8964     0.9612 C.ar    
  12 C12            1.6221    -4.2107     1.3847 C.ar    
  13 C13            0.6221    -4.5548     2.2775 C.ar    
  14 C14           -0.2521    -3.5927     2.7520 C.ar    
  15 C15           -0.1302    -2.2802     2.3443 C.ar    
  16 F16            2.4712    -5.1557     0.9252 F       
  17 O17            2.7339    -2.5565     0.0844 O.3     
  18 C18            3.9898    -2.1589     0.6381 C.3     
  19 C19            4.9462    -1.8218    -0.4767 C.ar    
  20 C20            5.0133    -0.5294    -0.9626 C.ar    
  21 C21            5.8906    -0.2201    -1.9852 C.ar    
  22 C22            6.7009    -1.2032    -2.5216 C.ar    
  23 C23            6.6344    -2.4954    -2.0352 C.ar    
  24 C24            5.7603    -2.8037    -1.0096 C.ar    
  25 C25            3.5891     3.9456    -2.1342 C.3     
  26 C26            2.7426     5.2158    -2.2391 C.3     
  27 C27            5.0578     4.3263    -1.9374 C.3     
  28 C28            3.4420     3.1272    -3.4185 C.3     
  29 H29           -0.5390     1.8931    -0.8745 H       
  30 H30           -0.5220     1.8835     0.9090 H       
  31 H31           -0.9885    -0.3795     0.2589 H       
  32 H32            0.2705    -0.3555    -0.9942 H       
  33 H33            2.6541    -0.2824     2.1953 H       
  34 H34            1.9689     2.2637     1.9996 H       
  35 H35            3.2701     1.7777     0.8846 H       
  36 H36            0.5232    -5.5791     2.6050 H       
  37 H37           -1.0302    -3.8696     3.4479 H       
  38 H38           -0.8114    -1.5317     2.7213 H       
  39 H39            3.8468    -1.2833     1.2714 H       
  40 H40            4.3991    -2.9750     1.2335 H       
  41 H41            4.3802     0.2387    -0.5435 H       
  42 H42            5.9425     0.7894    -2.3653 H       
  43 H43            7.3857    -0.9618    -3.3211 H       
  44 H44            7.2672    -3.2636    -2.4545 H       
  45 H45            5.7109    -3.8125    -0.6270 H       
  46 H46            2.8474     5.7989    -1.3241 H       
  47 H47            3.0812     5.8089    -3.0886 H       
  48 H48            1.6963     4.9446    -2.3793 H       
  49 H49            5.6608     3.4214    -1.8626 H       
  50 H50            5.3964     4.9194    -2.7869 H       
  51 H51            5.1626     4.9093    -1.0224 H       
  52 H52            2.3956     2.8560    -3.5587 H       
  53 H53            3.7806     3.7203    -4.2680 H       
  54 H54            4.0450     2.2223    -3.3437 H       
@<TRIPOS>BOND
   1    1    2 1
   2    1    6 1
   3    1   29 1
   4    1   30 1
   5    2    3 1
   6    2   31 1
   7    2   32 1
   8    3    4 2
   9    3   10 1
  10    4    5 1
  11    4   33 1
  12    5    6 1
  13    5   34 1
  14    5   35 1
  15    6    7 am
  16    7    8 2
  17    7    9 1
  18    9   25 1
  19   10   11 ar
  20   10   15 ar
  21   11   12 ar
  22   11   17 1
  23   12   13 ar
  24   12   16 1
  25   13   14 ar
  26   13   36 1
  27   14   15 ar
  28   14   37 1
  29   15   38 1
  30   17   18 1
  31   18   19 1
  32   18   39 1
  33   18   40 1
  34   19   20 ar
  35   19   24 ar
  36   20   21 ar
  37   20   41 1
  38   21   22 ar
  39   21   42 1
  40   22   23 ar
  41   22   43 1
  42   23   24 ar
  43   23   44 1
  44   24   45 1
  45   25   26 1
  46   25   28 1
  47   25   27 1
  48   26   46 1
  49   26   47 1
  50   26   48 1
  51   27   49 1
  52   27   50 1
  53   27   51 1
  54   28   52 1
  55   28   53 1
  56   28   54 1

#	End of record

