#	Name: ASD01410956
#	Creating user name:	WinNT
#	Creation time:	15. 06. 2019 19:19

#	Modifying user name:	WinNT
#	Modification time:	15. 06. 2019 19:19

#	Program:	/corina/corina34_cracker 3.40 0067  02.08.2006

@<TRIPOS>MOLECULE
ASD01410956
  67   70    0    0    0
SMALL
NO_CHARGES


@<TRIPOS>ATOM
   1 C1            -1.4058     3.0574     0.2110 C.ar    
   2 C2            -1.3275     0.6999    -0.2489 C.ar    
   3 C3            -2.7146     0.6554    -0.2829 C.ar    
   4 C4            -3.4551     1.8259    -0.0565 C.ar    
   5 C5            -2.7883     3.0293     0.1857 C.ar    
   6 O6            -0.7563     4.2273     0.4522 O.3     
   7 C7            -0.0595     4.7907    -0.5665 C.ar    
   8 N8            -3.3694    -0.5491    -0.5305 N.am    
   9 C9            -3.6680    -1.3762     0.4909 C.2     
  10 C10           -3.4490    -0.9381     1.8838 C.ar    
  11 O11           -4.1176    -2.4830     0.2653 O.2     
  12 C12           -2.7997     0.2705     2.1457 C.ar    
  13 C13           -3.6862    -1.3103     4.2492 C.ar    
  14 C14           -3.0372    -0.1157     4.4980 C.ar    
  15 C15           -2.5984     0.6737     3.4485 C.ar    
  16 C16           -2.8125     0.3336     5.9188 C.3     
  17 N17           -0.1227     4.2591    -1.7763 N.ar    
  18 C18           -3.7334    -0.9167    -1.9011 C.3     
  19 C19           -4.4978     0.2375    -2.5527 C.3     
  20 C20            0.7087     5.9236    -0.3306 C.ar    
  21 C21            1.4144     6.4889    -1.3786 C.ar    
  22 C22            1.3259     5.8980    -2.6313 C.ar    
  23 C23            0.5384     4.7753    -2.7946 C.ar    
  24 C24           -3.8957    -1.7284     2.9475 C.ar    
  25 C25            2.0763     6.4788    -3.8020 C.3     
  26 C26           -2.4646    -1.2066    -2.7055 C.3     
  27 O27           -1.8123    -2.3585    -2.1674 O.3     
  28 C28           -0.6094    -2.7173    -2.8503 C.3     
  29 C29           -0.6783     1.8928    -0.0037 C.ar    
  30 N30            3.4057     5.8684    -3.8814 N.pl3   
  31 N31            3.6819     4.8029    -4.5464 N.2     
  32 C32            4.9600     4.5353    -4.4021 C.2     
  33 C33            5.4705     5.5398    -3.5766 C.2     
  34 N34            4.4566     6.3282    -3.3000 N.2     
  35 F35           -4.5300    -2.8962     2.7046 F       
  36 C36            0.7727     6.5294     1.0478 C.3     
  37 F37            1.6058     7.6530     1.0251 F       
  38 F38           -0.5121     6.9095     1.4502 F       
  39 F39            1.2838     5.5879     1.9476 F       
  40 C40           -4.9281     1.7890    -0.0910 C.2     
  41 O41           -5.5080     0.7227    -0.1468 O.2     
  42 O42           -5.6317     2.9379    -0.0605 O.3     
  43 H43           -0.7551    -0.1994    -0.4224 H       
  44 H44           -3.3511     3.9357     0.3531 H       
  45 H45           -2.4558     0.8879     1.3290 H       
  46 H46           -4.0254    -1.9211     5.0728 H       
  47 H47           -2.0964     1.6082     3.6512 H       
  48 H48           -1.8565    -0.0507     6.2745 H       
  49 H49           -2.8036     1.4228     5.9583 H       
  50 H50           -3.6148    -0.0464     6.5512 H       
  51 H51           -4.3636    -1.8058    -1.8836 H       
  52 H52           -3.8868     1.1397    -2.5245 H       
  53 H53           -4.7243    -0.0157    -3.5885 H       
  54 H54           -5.4268     0.4106    -2.0095 H       
  55 H55            2.0198     7.3700    -1.2251 H       
  56 H56            0.4665     4.3114    -3.7673 H       
  57 H57            1.5278     6.2759    -4.7219 H       
  58 H58            2.1783     7.5559    -3.6699 H       
  59 H59           -2.7288    -1.3918    -3.7466 H       
  60 H60           -1.7940    -0.3492    -2.6478 H       
  61 H61           -0.1752    -3.6005    -2.3816 H       
  62 H62           -0.8351    -2.9339    -3.8944 H       
  63 H63            0.0997    -1.8913    -2.7956 H       
  64 H64            0.4010     1.9216     0.0213 H       
  65 H65            5.5044     3.7080    -4.8331 H       
  66 H66            6.4905     5.6486    -3.2388 H       
  67 H67           -6.5955     2.8632    -0.0851 H       
@<TRIPOS>BOND
   1    1   29 ar
   2    1    6 1
   3    1    5 ar
   4    2    3 ar
   5    2   29 ar
   6    2   43 1
   7    3    4 ar
   8    3    8 1
   9    4    5 ar
  10    4   40 1
  11    5   44 1
  12    6    7 1
  13    7   20 ar
  14    7   17 ar
  15    8    9 am
  16    8   18 1
  17    9   10 1
  18    9   11 2
  19   10   12 ar
  20   10   24 ar
  21   12   15 ar
  22   12   45 1
  23   13   14 ar
  24   13   24 ar
  25   13   46 1
  26   14   15 ar
  27   14   16 1
  28   15   47 1
  29   16   48 1
  30   16   49 1
  31   16   50 1
  32   17   23 ar
  33   18   19 1
  34   18   26 1
  35   18   51 1
  36   19   52 1
  37   19   53 1
  38   19   54 1
  39   20   21 ar
  40   20   36 1
  41   21   22 ar
  42   21   55 1
  43   22   23 ar
  44   22   25 1
  45   23   56 1
  46   24   35 1
  47   25   30 1
  48   25   57 1
  49   25   58 1
  50   26   27 1
  51   26   59 1
  52   26   60 1
  53   27   28 1
  54   28   61 1
  55   28   62 1
  56   28   63 1
  57   29   64 1
  58   30   31 1
  59   30   34 1
  60   31   32 2
  61   32   33 1
  62   32   65 1
  63   33   34 2
  64   33   66 1
  65   36   37 1
  66   36   38 1
  67   36   39 1
  68   40   41 2
  69   40   42 1
  70   42   67 1

#	End of record

