#	Name: ASD02408264
#	Creating user name:	WinNT
#	Creation time:	15. 06. 2019 20:21

#	Modifying user name:	WinNT
#	Modification time:	15. 06. 2019 20:21

#	Program:	/corina/corina34_cracker 3.40 0067  02.08.2006

@<TRIPOS>MOLECULE
ASD02408264
  45   48    0    0    0
SMALL
NO_CHARGES


@<TRIPOS>ATOM
   1 C1             0.1336     1.3596    -0.1091 C.2     
   2 C2             0.2272     0.0496    -0.4671 C.2     
   3 N3            -0.8848    -0.6834    -0.7044 N.pl3   
   4 N4            -2.0725    -0.2104    -0.6124 N.2     
   5 C5            -2.3050     1.0402    -0.2753 C.2     
   6 C6            -1.1639     1.9210     0.0099 C.2     
   7 C7            -0.7307    -2.0248    -1.0691 C.ar    
   8 C8            -1.8436    -2.8498    -1.1753 C.ar    
   9 C9            -1.6879    -4.1735    -1.5359 C.ar    
  10 C10           -0.4258    -4.6784    -1.7915 C.ar    
  11 C11            0.6839    -3.8603    -1.6864 C.ar    
  12 C12            0.5348    -2.5338    -1.3316 C.ar    
  13 C13           -3.6911     1.5489    -0.1797 C.2     
  14 C14           -4.1948     2.5084    -1.0202 C.2     
  15 S15           -5.8668     2.8400    -0.5878 S.3     
  16 C16           -5.8052     1.6610     0.7140 C.2     
  17 C17           -4.6026     1.0928     0.7672 C.2     
  18 C18           -3.4505     3.1606    -2.1152 C.ar    
  19 O19           -1.3254     3.0906     0.3273 O.2     
  20 C20           -2.7089     2.3914    -3.0150 C.ar    
  21 C21           -3.4891     4.5493    -2.2601 C.ar    
  22 C22           -2.7910     5.1520    -3.2857 C.ar    
  23 C23           -2.0541     4.3843    -4.1702 C.ar    
  24 C24           -2.0157     3.0076    -4.0359 C.ar    
  25 O25            1.2464     2.1037     0.1318 O.3     
  26 C26            2.5082     1.4478    -0.0082 C.3     
  27 C27           -2.8944    -5.0692    -1.6509 C.3     
  28 F28           -3.4594    -4.9296    -2.9230 F       
  29 F29           -2.5078    -6.3995    -1.4557 F       
  30 F30           -3.8359    -4.7101    -0.6804 F       
  31 H31            1.2000    -0.4096    -0.5630 H       
  32 H32           -2.8294    -2.4563    -0.9755 H       
  33 H33           -0.3068    -5.7141    -2.0735 H       
  34 H34            1.6680    -4.2578    -1.8863 H       
  35 H35            1.4020    -1.8952    -1.2500 H       
  36 H36           -6.6273     1.4279     1.3745 H       
  37 H37           -4.3507     0.3374     1.4968 H       
  38 H38           -2.6781     1.3168    -2.9113 H       
  39 H39           -4.0643     5.1497    -1.5709 H       
  40 H40           -2.8199     6.2257    -3.3989 H       
  41 H41           -1.5100     4.8614    -4.9719 H       
  42 H42           -1.4386     2.4145    -4.7298 H       
  43 H43            2.5608     0.6091     0.6860 H       
  44 H44            2.6161     1.0817    -1.0292 H       
  45 H45            3.3103     2.1524     0.2118 H       
@<TRIPOS>BOND
   1    1    2 2
   2    1   25 1
   3    1    6 1
   4    2    3 1
   5    2   31 1
   6    3    4 1
   7    3    7 1
   8    4    5 2
   9    5    6 1
  10    5   13 1
  11    6   19 2
  12    7    8 ar
  13    7   12 ar
  14    8    9 ar
  15    8   32 1
  16    9   10 ar
  17    9   27 1
  18   10   11 ar
  19   10   33 1
  20   11   12 ar
  21   11   34 1
  22   12   35 1
  23   13   14 2
  24   13   17 1
  25   14   15 1
  26   14   18 1
  27   15   16 1
  28   16   17 2
  29   16   36 1
  30   17   37 1
  31   18   20 ar
  32   18   21 ar
  33   20   24 ar
  34   20   38 1
  35   21   22 ar
  36   21   39 1
  37   22   23 ar
  38   22   40 1
  39   23   24 ar
  40   23   41 1
  41   24   42 1
  42   25   26 1
  43   26   43 1
  44   26   44 1
  45   26   45 1
  46   27   28 1
  47   27   29 1
  48   27   30 1

#	End of record

