#	Name: ASD04590374
#	Creating user name:	WinNT
#	Creation time:	15. 06. 2019 20:50

#	Modifying user name:	WinNT
#	Modification time:	15. 06. 2019 20:50

#	Program:	/corina/corina34_cracker 3.40 0067  02.08.2006

@<TRIPOS>MOLECULE
ASD04590374
  36   39    0    0    0
SMALL
NO_CHARGES


@<TRIPOS>ATOM
   1 C1            -0.0168     1.3875     0.0097 C.ar    
   2 C2             0.0021    -0.0041     0.0020 C.ar    
   3 C3            -1.1755    -0.7183     0.0090 C.ar    
   4 C4            -2.3994    -0.0405     0.0243 C.ar    
   5 C5            -2.4123     1.3649     0.0324 C.ar    
   6 C6            -1.2167     2.0696     0.0305 C.ar    
   7 N7            -3.6910    -0.4536     0.0345 N.2     
   8 C8            -4.4867     0.5881     0.0481 C.2     
   9 N9            -3.7437     1.7384     0.0475 N.pl3   
  10 C10           -5.9630     0.5299     0.0617 C.2     
  11 C11           -6.7486    -0.6459     0.0626 C.2     
  12 C12           -8.0515    -0.2724     0.0768 C.2     
  13 N13           -8.0954     1.0858     0.0847 N.pl3   
  14 N14           -6.7795     1.5651     0.0808 N.2     
  15 N15           -6.2654    -1.9644     0.0508 N.am    
  16 C16           -7.1294    -2.9988     0.0532 C.2     
  17 C17           -6.6218    -4.3840     0.0409 C.ar    
  18 O18           -8.3275    -2.7904     0.0656 O.2     
  19 C19           -6.3911    -5.0379    -1.1743 C.ar    
  20 C20           -5.9154    -6.3356    -1.1766 C.ar    
  21 C21           -5.6681    -6.9879     0.0176 C.ar    
  22 C22           -5.8934    -6.3490     1.2234 C.ar    
  23 C23           -6.3629    -5.0491     1.2442 C.ar    
  24 F24           -6.5823    -4.4268     2.4231 F       
  25 F25           -6.6329    -4.4028    -2.3420 F       
  26 F26            1.1837    -0.6589    -0.0128 F       
  27 F27            1.1463     2.0749     0.0023 F       
  28 H28           -1.1543    -1.7980     0.0023 H       
  29 H29           -1.2251     3.1496     0.0368 H       
  30 H30           -4.0871     2.6455     0.0563 H       
  31 H31           -8.9034    -0.9363     0.0812 H       
  32 H32           -8.8989     1.6292     0.0950 H       
  33 H33           -5.3098    -2.1307     0.0409 H       
  34 H34           -5.7368    -6.8419    -2.1137 H       
  35 H35           -5.2972    -8.0022     0.0086 H       
  36 H36           -5.6979    -6.8658     2.1514 H       
@<TRIPOS>BOND
   1    1    2 ar
   2    1   27 1
   3    1    6 ar
   4    2    3 ar
   5    2   26 1
   6    3    4 ar
   7    3   28 1
   8    4    5 ar
   9    4    7 1
  10    5    6 ar
  11    5    9 1
  12    6   29 1
  13    7    8 2
  14    8    9 1
  15    8   10 1
  16    9   30 1
  17   10   11 1
  18   10   14 2
  19   11   12 2
  20   11   15 1
  21   12   13 1
  22   12   31 1
  23   13   14 1
  24   13   32 1
  25   15   16 am
  26   15   33 1
  27   16   17 1
  28   16   18 2
  29   17   19 ar
  30   17   23 ar
  31   19   20 ar
  32   19   25 1
  33   20   21 ar
  34   20   34 1
  35   21   22 ar
  36   21   35 1
  37   22   23 ar
  38   22   36 1
  39   23   24 1

#	End of record

