#	Name: ASD07930703
#	Creating user name:	WinNT
#	Creation time:	15. 06. 2019 21:13

#	Modifying user name:	WinNT
#	Modification time:	15. 06. 2019 21:13

#	Program:	/corina/corina34_cracker 3.40 0067  02.08.2006

@<TRIPOS>MOLECULE
ASD07930703
  40   42    0    0    0
SMALL
NO_CHARGES


@<TRIPOS>ATOM
   1 C1            -0.0797     1.4535     0.2310 C.3     
   2 N2             0.6397    -0.2637    -2.1023 N.2     
   3 N3            -0.9616    -1.7201    -1.2215 N.pl3   
   4 C4            -0.9005    -2.8248    -0.2586 C.3     
   5 C5            -1.1375    -2.2772     1.1555 C.3     
   6 S6             0.0937    -0.9755     1.4778 S.o2    
   7 N7            -0.0342    -0.0071     0.1278 N.am    
   8 C8            -0.0959    -0.6526    -1.0991 C.2     
   9 C9             0.4778    -3.4857    -0.3262 C.3     
  10 O10           -0.3203    -0.1450     2.5540 O.2     
  11 O11            1.4121    -1.5020     1.4165 O.2     
  12 C12           -1.9634    -3.8404    -0.5898 C.2     
  13 C13           -2.1470    -4.9501     0.1339 C.2     
  14 C14           -2.8233    -3.6916    -1.6587 C.2     
  15 C15           -3.7127    -4.6927    -1.8100 C.2     
  16 S16           -3.4684    -5.8907    -0.5457 S.3     
  17 C17           -4.7372    -4.7705    -2.8729 C.ar    
  18 C18           -5.6046    -5.8593    -2.9276 C.ar    
  19 C19           -6.5686    -5.9258    -3.9324 C.ar    
  20 C20           -6.6597    -4.9018    -4.8778 C.ar    
  21 C21           -5.7956    -3.8234    -4.8182 C.ar    
  22 C22           -4.8410    -3.7498    -3.8205 C.ar    
  23 Cl23          -1.2203    -5.3951     1.5328 Cl      
  24 C24           -7.4635    -7.0421    -3.9954 C.1     
  25 N25           -8.1733    -7.9276    -4.0454 N.1     
  26 F26           -5.8877    -2.8358    -5.7355 F       
  27 H27            0.9336     1.8527     0.1861 H       
  28 H28           -0.6665     1.8579    -0.5937 H       
  29 H29           -0.5401     1.7367     1.1776 H       
  30 H30            1.2432     0.4886    -1.9983 H       
  31 H31           -1.6068    -1.7418    -1.9454 H       
  32 H32           -2.1416    -1.8584     1.2239 H       
  33 H33           -1.0232    -3.0797     1.8843 H       
  34 H34            1.2455    -2.7507    -0.0846 H       
  35 H35            0.5226    -4.3066     0.3895 H       
  36 H36            0.6471    -3.8708    -1.3317 H       
  37 H37           -2.7867    -2.8398    -2.3216 H       
  38 H38           -5.5303    -6.6490    -2.1946 H       
  39 H39           -7.4058    -4.9522    -5.6570 H       
  40 H40           -4.1690    -2.9054    -3.7789 H       
@<TRIPOS>BOND
   1    1    7 1
   2    1   27 1
   3    1   28 1
   4    1   29 1
   5    2    8 2
   6    2   30 1
   7    3    4 1
   8    3    8 1
   9    3   31 1
  10    4    5 1
  11    4    9 1
  12    4   12 1
  13    5    6 1
  14    5   32 1
  15    5   33 1
  16    6    7 am
  17    6   10 2
  18    6   11 2
  19    7    8 1
  20    9   34 1
  21    9   35 1
  22    9   36 1
  23   12   14 1
  24   12   13 2
  25   13   23 1
  26   13   16 1
  27   14   15 2
  28   14   37 1
  29   15   16 1
  30   15   17 1
  31   17   18 ar
  32   17   22 ar
  33   18   19 ar
  34   18   38 1
  35   19   20 ar
  36   19   24 1
  37   20   21 ar
  38   20   39 1
  39   21   22 ar
  40   21   26 1
  41   22   40 1
  42   24   25 3

#	End of record

