#	Name: ASD01870647
#	Creating user name:	WinNT
#	Creation time:	15. 06. 2019 19:39

#	Modifying user name:	WinNT
#	Modification time:	15. 06. 2019 19:39

#	Program:	/corina/corina34_cracker 3.40 0067  02.08.2006

@<TRIPOS>MOLECULE
ASD01870647
  43   46    0    0    0
SMALL
NO_CHARGES


@<TRIPOS>ATOM
   1 C1             4.2084     1.3797     1.4252 C.ar    
   2 C2             4.2093     0.0016     1.3987 C.ar    
   3 C3             3.2684    -0.6804     0.6424 C.ar    
   4 C4             2.3219     0.0189    -0.0910 C.ar    
   5 C5             2.3116     1.3970    -0.0713 C.ar    
   6 C6             3.2571     2.0891     0.6888 C.ar    
   7 C7             3.2509     3.5658     0.7137 C.2     
   8 O8             4.0750     4.1661     1.3761 O.2     
   9 N9             2.3317     4.2480     0.0021 N.am    
  10 C10            2.2647     5.6425     0.1001 C.ar    
  11 C11            0.9676     7.6590     0.1516 C.ar    
  12 C12            1.0334     6.2836     0.0550 C.ar    
  13 C13            3.4291     6.3852     0.2482 C.ar    
  14 C14            3.3626     7.7605     0.3448 C.ar    
  15 C15            2.1321     8.4015     0.2944 C.ar    
  16 N16            2.0649     9.7996     0.3926 N.am    
  17 C17            1.7130    12.0266    -0.1833 C.3     
  18 C18            1.6700    10.5790    -0.6218 C.2     
  19 C19            2.3850    10.4636     1.5101 C.2     
  20 C20            2.2028    11.9475     1.2770 C.3     
  21 C21            0.8009    12.4727     0.9612 C.3     
  22 C22            0.5572    13.9744     1.1242 C.3     
  23 C23           -0.3850    11.5713     1.3102 C.3     
  24 O24            1.3319    10.1871    -1.7181 O.2     
  25 O25            2.7610     9.9563     2.5450 O.2     
  26 F26            3.2740    -2.0312     0.6196 F       
  27 H27            2.1006    12.7601    -0.8903 H       
  28 H28            2.9625    12.6211     1.6736 H       
  29 H29            4.9392     1.9099     2.0178 H       
  30 H30            4.9445    -0.5480     1.9678 H       
  31 H31            1.5917    -0.5173    -0.6790 H       
  32 H32            1.5740     1.9407    -0.6429 H       
  33 H33            1.7167     3.7724    -0.5779 H       
  34 H34            0.0103     8.1576     0.1161 H       
  35 H35            0.1276     5.7061    -0.0561 H       
  36 H36            4.3863     5.8866     0.2882 H       
  37 H37            4.2679     8.3381     0.4600 H       
  38 H38            0.0968    14.3682     0.2181 H       
  39 H39           -0.1060    14.1448     1.9723 H       
  40 H40            1.5070    14.4798     1.2984 H       
  41 H41           -0.0196    10.5860     1.5997 H       
  42 H42           -0.9433    12.0093     2.1375 H       
  43 H43           -1.0370    11.4762     0.4419 H       
@<TRIPOS>BOND
   1    1    2 ar
   2    1    6 ar
   3    1   29 1
   4    2    3 ar
   5    2   30 1
   6    3    4 ar
   7    3   26 1
   8    4    5 ar
   9    4   31 1
  10    5    6 ar
  11    5   32 1
  12    6    7 1
  13    7    8 2
  14    7    9 am
  15    9   10 1
  16    9   33 1
  17   10   13 ar
  18   10   12 ar
  19   11   12 ar
  20   11   15 ar
  21   11   34 1
  22   12   35 1
  23   13   14 ar
  24   13   36 1
  25   14   15 ar
  26   14   37 1
  27   15   16 1
  28   16   19 am
  29   16   18 am
  30   17   18 1
  31   17   20 1
  32   17   21 1
  33   17   27 1
  34   18   24 2
  35   19   20 1
  36   19   25 2
  37   20   28 1
  38   20   21 1
  39   21   22 1
  40   21   23 1
  41   22   38 1
  42   22   39 1
  43   22   40 1
  44   23   41 1
  45   23   42 1
  46   23   43 1

#	End of record

