#	Name: ASD01915534
#	Creating user name:	WinNT
#	Creation time:	15. 06. 2019 20:05

#	Modifying user name:	WinNT
#	Modification time:	15. 06. 2019 20:05

#	Program:	/corina/corina34_cracker 3.40 0067  02.08.2006

@<TRIPOS>MOLECULE
ASD01915534
  43   45    0    0    0
SMALL
NO_CHARGES


@<TRIPOS>ATOM
   1 C1            -0.3940     1.7229     0.1102 C.ar    
   2 C2            -0.5250     0.3726     0.3795 C.ar    
   3 N3             0.5191    -0.3561     0.7131 N.ar    
   4 C4             1.7363     0.1670     0.8058 C.ar    
   5 C5             1.9480     1.5181     0.5505 C.ar    
   6 C6             0.8632     2.3155     0.1947 C.ar    
   7 C7            -1.8834    -0.2739     0.2901 C.3     
   8 O8             1.0272     3.6380    -0.0630 O.3     
   9 C9             2.2782     4.1583     0.0430 C.ar    
  10 C10            3.2090     3.9638    -0.9671 C.ar    
  11 N11            4.4239     4.4663    -0.8683 N.ar    
  12 C12            4.8020     5.1675     0.1823 C.ar    
  13 C13            3.9304     5.4037     1.2292 C.ar    
  14 C14            2.6421     4.8987     1.1637 C.ar    
  15 C15            2.8791    -0.6960     1.1851 C.2     
  16 N16            2.6809    -2.0056     1.4342 N.am    
  17 O17            3.9951    -0.2232     1.2715 O.2     
  18 C18            3.7683    -2.8388     1.6874 C.ar    
  19 C19            3.5691    -4.2074     1.8288 C.ar    
  20 C20            4.6581    -5.0238     2.0797 C.ar    
  21 C21            5.9135    -4.4405     2.1808 C.ar    
  22 C22            6.0382    -3.0733     2.0293 C.ar    
  23 N23            4.9827    -2.3208     1.7858 N.ar    
  24 C24            7.3984    -2.4339     2.1385 C.3     
  25 C25            7.6815    -1.6184     0.8752 C.3     
  26 H26           -1.2568     2.3104    -0.1669 H       
  27 H27            2.9383     1.9421     0.6270 H       
  28 H28           -2.0439    -0.6436    -0.7227 H       
  29 H29           -1.9372    -1.1051     0.9931 H       
  30 H30           -2.6516     0.4595     0.5351 H       
  31 H31            2.9358     3.3945    -1.8433 H       
  32 H32            5.8062     5.5625     0.2257 H       
  33 H33            4.2489     5.9786     2.0862 H       
  34 H34            1.9400     5.0680     1.9667 H       
  35 H35            1.7811    -2.3680     1.4372 H       
  36 H36            2.5779    -4.6278     1.7444 H       
  37 H37            4.5338    -6.0904     2.1945 H       
  38 H38            6.7839    -5.0494     2.3763 H       
  39 H39            7.4224    -1.7769     3.0079 H       
  40 H40            8.1567    -3.2092     2.2479 H       
  41 H41            7.6575    -2.2753     0.0057 H       
  42 H42            6.9232    -0.8431     0.7657 H       
  43 H43            8.6653    -1.1559     0.9541 H       
@<TRIPOS>BOND
   1    1    2 ar
   2    1    6 ar
   3    1   26 1
   4    2    3 ar
   5    2    7 1
   6    3    4 ar
   7    4    5 ar
   8    4   15 1
   9    5    6 ar
  10    5   27 1
  11    6    8 1
  12    7   28 1
  13    7   29 1
  14    7   30 1
  15    8    9 1
  16    9   10 ar
  17    9   14 ar
  18   10   11 ar
  19   10   31 1
  20   11   12 ar
  21   12   13 ar
  22   12   32 1
  23   13   14 ar
  24   13   33 1
  25   14   34 1
  26   15   16 am
  27   15   17 2
  28   16   18 1
  29   16   35 1
  30   18   19 ar
  31   18   23 ar
  32   19   20 ar
  33   19   36 1
  34   20   21 ar
  35   20   37 1
  36   21   22 ar
  37   21   38 1
  38   22   23 ar
  39   22   24 1
  40   24   25 1
  41   24   39 1
  42   24   40 1
  43   25   41 1
  44   25   42 1
  45   25   43 1

#	End of record

