#	Name: ASD02030754
#	Creating user name:	WinNT
#	Creation time:	15. 06. 2019 20:16

#	Modifying user name:	WinNT
#	Modification time:	15. 06. 2019 20:16

#	Program:	/corina/corina34_cracker 3.40 0067  02.08.2006

@<TRIPOS>MOLECULE
ASD02030754
  48   50    0    0    0
SMALL
NO_CHARGES


@<TRIPOS>ATOM
   1 C1            -0.0168     1.3844     0.0097 C.ar    
   2 C2            -2.4143     1.3483     0.0208 C.ar    
   3 C3            -1.2302     2.0593     0.0191 C.ar    
   4 C4             0.0021    -0.0041     0.0020 C.ar    
   5 C5            -1.1854    -0.7094     0.0091 C.ar    
   6 C6            -2.3921    -0.0344     0.0233 C.ar    
   7 C7            -3.6859    -0.8071     0.0257 C.3     
   8 C8            -3.7530    -1.6856     1.2766 C.3     
   9 N9            -5.0594    -2.3454     1.3405 N.am    
  10 S10           -5.2903    -3.6276     2.3628 S.o2    
  11 C11           -5.0977    -2.9231     4.0232 C.3     
  12 C12           -6.1436    -1.8269     4.2366 C.3     
  13 C13           -5.2907    -4.0228     5.0693 C.3     
  14 C14           -3.7549    -1.6901    -1.2219 C.3     
  15 O15           -6.6389    -4.0156     2.1391 O.2     
  16 O16           -4.2157    -4.5092     2.0674 O.2     
  17 N17            1.1858     2.1026     0.0020 N.pl3   
  18 C18            2.7824     3.5839    -0.5391 C.ar    
  19 C19            3.2347     2.7421     0.5709 C.2     
  20 C20            2.2409     1.8802     0.8443 C.2     
  21 C21            0.7959     3.7565    -1.8951 C.ar    
  22 C22            1.4170     4.7927    -2.5690 C.ar    
  23 C23            2.6958     5.1823    -2.2004 C.ar    
  24 N24            3.3339     4.5870    -1.2161 N.ar    
  25 C25            1.4868     3.1359    -0.8589 C.ar    
  26 H26           -3.3584     1.8727     0.0285 H       
  27 H27           -1.2481     3.1392     0.0254 H       
  28 H28            0.9443    -0.5318    -0.0098 H       
  29 H29           -1.1714    -1.7893     0.0032 H       
  30 H30           -4.5248    -0.1111     0.0251 H       
  31 H31           -2.9669    -2.4394     1.2337 H       
  32 H32           -3.6148    -1.0666     2.1631 H       
  33 H33           -5.7892    -2.0312     0.7841 H       
  34 H34           -4.0994    -2.4972     4.1237 H       
  35 H35           -6.0278    -1.4036     5.2344 H       
  36 H36           -6.0060    -1.0435     3.4914 H       
  37 H37           -7.1419    -2.2528     4.1362 H       
  38 H38           -4.5456    -4.8037     4.9173 H       
  39 H39           -5.1750    -3.5994     6.0671 H       
  40 H40           -6.2890    -4.4486     4.9689 H       
  41 H41           -2.9160    -2.3861    -1.2213 H       
  42 H42           -4.6907    -2.2490    -1.2201 H       
  43 H43           -3.7072    -1.0643    -2.1130 H       
  44 H44            4.1880     2.8028     1.0748 H       
  45 H45            2.2704     1.1242     1.6149 H       
  46 H46           -0.1998     3.4377    -2.1659 H       
  47 H47            0.9086     5.2954    -3.3784 H       
  48 H48            3.1760     5.9918    -2.7299 H       
@<TRIPOS>BOND
   1    1    4 ar
   2    1   17 1
   3    1    3 ar
   4    2    3 ar
   5    2    6 ar
   6    2   26 1
   7    3   27 1
   8    4    5 ar
   9    4   28 1
  10    5    6 ar
  11    5   29 1
  12    6    7 1
  13    7    8 1
  14    7   14 1
  15    7   30 1
  16    8    9 1
  17    8   31 1
  18    8   32 1
  19    9   10 am
  20    9   33 1
  21   10   11 1
  22   10   15 2
  23   10   16 2
  24   11   12 1
  25   11   13 1
  26   11   34 1
  27   12   35 1
  28   12   36 1
  29   12   37 1
  30   13   38 1
  31   13   39 1
  32   13   40 1
  33   14   41 1
  34   14   42 1
  35   14   43 1
  36   17   25 1
  37   17   20 1
  38   18   19 1
  39   18   25 ar
  40   18   24 ar
  41   19   20 2
  42   19   44 1
  43   20   45 1
  44   21   22 ar
  45   21   25 ar
  46   21   46 1
  47   22   23 ar
  48   22   47 1
  49   23   24 ar
  50   23   48 1

#	End of record

