#	Name: ASD01240027
#	Creating user name:	WinNT
#	Creation time:	15. 06. 2019 19:15

#	Modifying user name:	WinNT
#	Modification time:	15. 06. 2019 19:15

#	Program:	/corina/corina34_cracker 3.40 0067  02.08.2006

@<TRIPOS>MOLECULE
ASD01240027
  35   37    0    0    0
SMALL
NO_CHARGES


@<TRIPOS>ATOM
   1 O1            -0.0164     1.3547     0.0095 O.3     
   2 C2             0.0021    -0.0041     0.0020 C.ar    
   3 C3             0.0229    -0.7040     1.1969 C.ar    
   4 C4             0.0427    -2.0949     1.1951 C.ar    
   5 O5             0.0574    -2.7428     2.3891 O.3     
   6 C6             0.4451    -4.1174     2.3983 C.3     
   7 C7             0.1392    -4.7221     3.7444 C.ar    
   8 C8            -1.0328    -4.3919     4.3983 C.ar    
   9 C9            -1.3181    -4.9442     5.6336 C.ar    
  10 C10           -0.4283    -5.8304     6.2182 C.ar    
  11 C11            0.7521    -6.1629     5.5596 C.ar    
  12 C12            1.0291    -5.6105     4.3199 C.ar    
  13 O13            1.6287    -7.0324     6.1295 O.3     
  14 O14           -0.7071    -6.3740     7.4332 O.3     
  15 C15           -0.3489    -4.8509     1.3098 C.3     
  16 C16            0.0685    -4.2875    -0.0509 C.3     
  17 C17            0.0429    -2.7806    -0.0063 C.ar    
  18 C18            0.0205    -2.0770    -1.2054 C.ar    
  19 C19           -0.0057    -0.6922    -1.2022 C.ar    
  20 O20            0.0191    -2.7511    -2.3854 O.3     
  21 O21           -1.7481    -4.6405     1.5096 O.3     
  22 H22            0.8616     1.7600     0.0033 H       
  23 H23            0.0242    -0.1675     2.1342 H       
  24 H24            1.5125    -4.1992     2.1932 H       
  25 H25           -1.7271    -3.7009     3.9437 H       
  26 H26           -2.2344    -4.6843     6.1427 H       
  27 H27            1.9442    -5.8668     3.8068 H       
  28 H28            1.4712    -7.9580     5.8980 H       
  29 H29           -1.1990    -7.2054     7.3886 H       
  30 H30           -0.1277    -5.9175     1.3494 H       
  31 H31            1.0766    -4.6262    -0.2899 H       
  32 H32           -0.6227    -4.6395    -0.8167 H       
  33 H33           -0.0231    -0.1492    -2.1356 H       
  34 H34           -0.8645    -2.9595    -2.7182 H       
  35 H35           -2.3091    -5.0778     0.8546 H       
@<TRIPOS>BOND
   1    1    2 1
   2    1   22 1
   3    2    3 ar
   4    2   19 ar
   5    3    4 ar
   6    3   23 1
   7    4    5 1
   8    4   17 ar
   9    5    6 1
  10    6    7 1
  11    6   15 1
  12    6   24 1
  13    7    8 ar
  14    7   12 ar
  15    8    9 ar
  16    8   25 1
  17    9   10 ar
  18    9   26 1
  19   10   11 ar
  20   10   14 1
  21   11   12 ar
  22   11   13 1
  23   12   27 1
  24   13   28 1
  25   14   29 1
  26   15   16 1
  27   15   21 1
  28   15   30 1
  29   16   17 1
  30   16   31 1
  31   16   32 1
  32   17   18 ar
  33   18   19 ar
  34   18   20 1
  35   19   33 1
  36   20   34 1
  37   21   35 1

#	End of record

