#	Name: ASD02030516
#	Creating user name:	WinNT
#	Creation time:	15. 06. 2019 20:15

#	Modifying user name:	WinNT
#	Modification time:	15. 06. 2019 20:15

#	Program:	/corina/corina34_cracker 3.40 0067  02.08.2006

@<TRIPOS>MOLECULE
ASD02030516
  58   61    0    0    0
SMALL
NO_CHARGES


@<TRIPOS>ATOM
   1 N1            -0.2119     1.4223    -0.1394 N.am    
   2 C2            -0.0216    -0.0112     0.1224 C.3     
   3 C3            -0.9186    -0.4180     1.2980 C.3     
   4 N4            -2.2776     0.0818     1.0467 N.am    
   5 C5            -2.4679     1.5154     0.7849 C.3     
   6 C6            -1.5716     1.9231    -0.3852 C.3     
   7 C7             0.8410     2.2637    -0.1484 C.2     
   8 C8             2.1834     1.7718     0.2278 C.2     
   9 N9             3.2620     2.5089     0.3831 N.2     
  10 N10            2.5161     0.4920     0.4774 N.2     
  11 C11            3.7904     0.4723     0.7749 C.2     
  12 N12            4.2433     1.7413     0.7119 N.pl3   
  13 O13            0.6868     3.4269    -0.4658 O.2     
  14 C14           -3.3305    -0.7595     1.0556 C.2     
  15 C15           -4.7026    -0.2282     0.9116 C.ar    
  16 O16           -3.1520    -1.9552     1.1822 O.2     
  17 C17           -1.5450     3.4482    -0.5045 C.3     
  18 C18           -2.1092     1.3125    -1.6810 C.3     
  19 C19            5.5589     2.1549     0.9613 C.ar    
  20 C20            5.8964     3.4976     0.8618 C.ar    
  21 C21            7.1950     3.9024     1.1089 C.ar    
  22 C22            8.1574     2.9701     1.4546 C.ar    
  23 C23            7.8231     1.6320     1.5542 C.ar    
  24 C24            6.5261     1.2228     1.3141 C.ar    
  25 Cl25           7.6188     5.5813     0.9849 Cl      
  26 C26           -5.6741    -0.9693     0.2369 C.ar    
  27 C27           -6.9525    -0.4677     0.1060 C.ar    
  28 C28           -7.2726     0.7672     0.6416 C.ar    
  29 C29           -6.3142     1.5072     1.3111 C.ar    
  30 C30           -5.0337     1.0143     1.4545 C.ar    
  31 C31           -8.0026    -1.2663    -0.6225 C.3     
  32 C32           -6.6718     2.8515     1.8908 C.3     
  33 H33           -0.2966    -0.5844    -0.7630 H       
  34 H34            1.0214    -0.2017     0.3751 H       
  35 H35           -0.9385    -1.5044     1.3841 H       
  36 H36           -0.5333     0.0175     2.2199 H       
  37 H37           -3.5110     1.7058     0.5322 H       
  38 H38           -2.1929     2.0886     1.6703 H       
  39 H39            4.3729    -0.4011     1.0281 H       
  40 H40           -1.0490     3.8723     0.3685 H       
  41 H41           -1.0011     3.7327    -1.4053 H       
  42 H42           -2.5658     3.8260    -0.5618 H       
  43 H43           -3.1227     1.6719    -1.8588 H       
  44 H44           -1.4688     1.6044    -2.5133 H       
  45 H45           -2.1191     0.2260    -1.5939 H       
  46 H46            5.1455     4.2252     0.5913 H       
  47 H47            9.1715     3.2880     1.6466 H       
  48 H48            8.5763     0.9065     1.8239 H       
  49 H49            6.2660     0.1775     1.3925 H       
  50 H50           -5.4254    -1.9333    -0.1819 H       
  51 H51           -8.2749     1.1554     0.5363 H       
  52 H52           -4.2866     1.5928     1.9776 H       
  53 H53           -8.5238    -1.9116     0.0846 H       
  54 H54           -8.7163    -0.5876    -1.0893 H       
  55 H55           -7.5270    -1.8774    -1.3897 H       
  56 H56           -7.0258     2.7235     2.9137 H       
  57 H57           -5.7911     3.4939     1.8888 H       
  58 H58           -7.4569     3.3094     1.2892 H       
@<TRIPOS>BOND
   1    1    2 1
   2    1    7 am
   3    1    6 1
   4    2    3 1
   5    2   33 1
   6    2   34 1
   7    3    4 1
   8    3   35 1
   9    3   36 1
  10    4    5 1
  11    4   14 am
  12    5    6 1
  13    5   37 1
  14    5   38 1
  15    6   17 1
  16    6   18 1
  17    7    8 1
  18    7   13 2
  19    8    9 2
  20    8   10 1
  21    9   12 1
  22   10   11 2
  23   11   12 1
  24   11   39 1
  25   12   19 1
  26   14   15 1
  27   14   16 2
  28   15   26 ar
  29   15   30 ar
  30   17   40 1
  31   17   41 1
  32   17   42 1
  33   18   43 1
  34   18   44 1
  35   18   45 1
  36   19   20 ar
  37   19   24 ar
  38   20   21 ar
  39   20   46 1
  40   21   22 ar
  41   21   25 1
  42   22   23 ar
  43   22   47 1
  44   23   24 ar
  45   23   48 1
  46   24   49 1
  47   26   27 ar
  48   26   50 1
  49   27   28 ar
  50   27   31 1
  51   28   29 ar
  52   28   51 1
  53   29   30 ar
  54   29   32 1
  55   30   52 1
  56   31   53 1
  57   31   54 1
  58   31   55 1
  59   32   56 1
  60   32   57 1
  61   32   58 1

#	End of record

