#	Name: ASD05430732
#	Creating user name:	WinNT
#	Creation time:	15. 06. 2019 21:00

#	Modifying user name:	WinNT
#	Modification time:	15. 06. 2019 21:00

#	Program:	/corina/corina34_cracker 3.40 0067  02.08.2006

@<TRIPOS>MOLECULE
ASD05430732
  55   59    0    0    0
SMALL
NO_CHARGES


@<TRIPOS>ATOM
   1 C1            -0.0514     1.2210     0.0699 C.2     
   2 C2            -0.0947    -0.1632    -0.1369 C.2     
   3 C3            -1.3440    -0.7978    -0.2792 C.2     
   4 C4            -2.4763    -0.0666    -0.2146 C.2     
   5 N5            -2.4389     1.2826    -0.0137 N.am    
   6 C6            -1.2712     1.9386     0.1339 C.2     
   7 O7            -1.2641     3.1450     0.3128 O.2     
   8 C8            -3.6955     2.0331     0.0485 C.3     
   9 C9            -4.4816     1.8198    -1.2466 C.3     
  10 C10           -4.5130     1.5480     1.2180 C.ar    
  11 C11           -3.8819     1.1162     2.3694 C.ar    
  12 C12           -4.6310     0.6707     3.4449 C.ar    
  13 C13           -6.0147     0.6578     3.3665 C.ar    
  14 C14           -6.6456     1.0912     2.2111 C.ar    
  15 C15           -5.8930     1.5409     1.1397 C.ar    
  16 N16            1.2439     1.5727     0.1724 N.2     
  17 C17            1.9987     0.5080     0.0441 C.2     
  18 N18            1.2057    -0.5938    -0.1501 N.pl3   
  19 C19            3.4758     0.4973     0.0990 C.ar    
  20 C20            4.1764     1.6873     0.3021 C.ar    
  21 C21            5.5581     1.6728     0.3528 C.ar    
  22 C22            6.2481     0.4710     0.2012 C.ar    
  23 C23            5.5502    -0.7122    -0.0013 C.ar    
  24 C24            4.1724    -0.7040    -0.0464 C.ar    
  25 N25            7.6490     0.4571     0.2527 N.pl3   
  26 C26            8.4905     1.2663    -0.4413 C.2     
  27 N27            9.7190     0.9540    -0.1294 N.2     
  28 C28            9.7100    -0.0494     0.7604 C.2     
  29 C29            8.4281    -0.3719     1.0176 C.2     
  30 C30           10.9245    -0.6999     1.3710 C.3     
  31 F31           -7.9942     1.0791     2.1321 F       
  32 F32           -4.0137     0.2483     4.5700 F       
  33 Cl33          -1.4269    -2.5125    -0.5371 Cl      
  34 F34           -6.7476     0.2229     4.4149 F       
  35 O35            6.2436     2.8302     0.5501 O.3     
  36 C36            5.4722     4.0241     0.6970 C.3     
  37 H37           -3.4312    -0.5590    -0.3244 H       
  38 H38           -3.4792     3.0943     0.1717 H       
  39 H39           -3.8903     2.1707    -2.0925 H       
  40 H40           -4.6979     0.7586    -1.3698 H       
  41 H41           -5.4166     2.3782    -1.2004 H       
  42 H42           -2.8036     1.1261     2.4300 H       
  43 H43           -6.3842     1.8787     0.2392 H       
  44 H44            1.5088    -1.5070    -0.2736 H       
  45 H45            3.6404     2.6176     0.4191 H       
  46 H46            6.0877    -1.6415    -0.1191 H       
  47 H47            3.6319    -1.6257    -0.2037 H       
  48 H48            8.1931     2.0386    -1.1353 H       
  49 H49            8.0806    -1.1405     1.6921 H       
  50 H50           11.1959    -0.1752     2.2871 H       
  51 H51           10.7015    -1.7417     1.6015 H       
  52 H52           11.7547    -0.6534     0.6662 H       
  53 H53            4.8776     4.1854    -0.2022 H       
  54 H54            4.8103     3.9254     1.5574 H       
  55 H55            6.1402     4.8721     0.8479 H       
@<TRIPOS>BOND
   1    1    2 2
   2    1   16 1
   3    1    6 1
   4    2    3 1
   5    2   18 1
   6    3    4 2
   7    3   33 1
   8    4    5 1
   9    4   37 1
  10    5    6 am
  11    5    8 1
  12    6    7 2
  13    8    9 1
  14    8   10 1
  15    8   38 1
  16    9   39 1
  17    9   40 1
  18    9   41 1
  19   10   11 ar
  20   10   15 ar
  21   11   12 ar
  22   11   42 1
  23   12   13 ar
  24   12   32 1
  25   13   14 ar
  26   13   34 1
  27   14   15 ar
  28   14   31 1
  29   15   43 1
  30   16   17 2
  31   17   18 1
  32   17   19 1
  33   18   44 1
  34   19   20 ar
  35   19   24 ar
  36   20   21 ar
  37   20   45 1
  38   21   22 ar
  39   21   35 1
  40   22   23 ar
  41   22   25 1
  42   23   24 ar
  43   23   46 1
  44   24   47 1
  45   25   26 1
  46   25   29 1
  47   26   27 2
  48   26   48 1
  49   27   28 1
  50   28   29 2
  51   28   30 1
  52   29   49 1
  53   30   50 1
  54   30   51 1
  55   30   52 1
  56   35   36 1
  57   36   53 1
  58   36   54 1
  59   36   55 1

#	End of record

