#	Name: ASD01815759
#	Creating user name:	WinNT
#	Creation time:	15. 06. 2019 19:33

#	Modifying user name:	WinNT
#	Modification time:	15. 06. 2019 19:33

#	Program:	/corina/corina34_cracker 3.40 0067  02.08.2006

@<TRIPOS>MOLECULE
ASD01815759
  53   58    0    0    0
SMALL
NO_CHARGES


@<TRIPOS>ATOM
   1 C1            -0.0168     1.3869     0.0097 C.ar    
   2 C2             0.0021    -0.0041     0.0020 C.ar    
   3 C3             1.1801    -0.6897    -0.0129 C.ar    
   4 C4             2.3948     0.0129    -0.0207 C.ar    
   5 C5             2.3717     1.4290    -0.0129 C.ar    
   6 C6             1.1455     2.1015     0.0024 C.ar    
   7 C7             3.6293    -0.6694    -0.0365 C.ar    
   8 C8             4.8031     0.0063    -0.0446 C.ar    
   9 C9             4.8359     1.4095    -0.0374 C.ar    
  10 C10            3.6406     2.1511    -0.0211 C.ar    
  11 C11            6.1026     2.1526    -0.0470 C.2     
  12 N12            6.0328     3.5041    -0.0399 N.am    
  13 C13            4.8302     4.1313    -0.0241 C.2     
  14 N14            3.6961     3.4935    -0.0158 N.2     
  15 C15            7.2655     4.2957    -0.0490 C.3     
  16 C16            7.2938     5.1857    -1.2953 C.3     
  17 C17            7.3143     5.1822     1.1993 C.3     
  18 C18            8.5657     6.0622     1.1420 C.3     
  19 O19            8.5443     6.8411    -0.0559 O.3     
  20 C20            8.5460     6.0656    -1.2562 C.3     
  21 O21            7.3616     4.3602     2.3672 O.3     
  22 O22            7.1745     1.5748    -0.0604 O.2     
  23 C23            3.6424    -2.1763    -0.0442 C.3     
  24 C24            3.5087    -2.6726    -1.4608 C.2     
  25 N25            4.4974    -2.9000    -2.2402 N.2     
  26 C26            4.2294    -3.3421    -3.4836 C.ar    
  27 C27            2.8540    -3.4769    -3.7022 C.ar    
  28 S28            2.0198    -3.0086    -2.2239 S.3     
  29 C29            5.1124    -3.6676    -4.5331 C.ar    
  30 C30            4.6304    -4.1028    -5.7301 C.ar    
  31 C31            3.2648    -4.2343    -5.9403 C.ar    
  32 C32            2.3789    -3.9237    -4.9335 C.ar    
  33 H33           -0.9630     1.9076     0.0169 H       
  34 H34           -0.9305    -0.5488     0.0083 H       
  35 H35            1.1786    -1.7697    -0.0183 H       
  36 H36            1.1188     3.1811     0.0081 H       
  37 H37            5.7317    -0.5451    -0.0563 H       
  38 H38            4.8132     5.2111    -0.0182 H       
  39 H39            8.1273     3.6284    -0.0578 H       
  40 H40            7.3151     4.5613    -2.1884 H       
  41 H41            6.4054     5.8170    -1.3123 H       
  42 H42            6.4263     5.8134     1.2327 H       
  43 H43            8.5835     6.7256     2.0067 H       
  44 H44            9.4545     5.4312     1.1495 H       
  45 H45            9.4345     5.4346    -1.2801 H       
  46 H46            8.5495     6.7314    -2.1192 H       
  47 H47            7.3941     4.8565     3.1965 H       
  48 H48            4.5813    -2.5336     0.3789 H       
  49 H49            2.8098    -2.5499     0.5518 H       
  50 H50            6.1781    -3.5708    -4.3871 H       
  51 H51            5.3188    -4.3482    -6.5252 H       
  52 H52            2.8968    -4.5806    -6.8948 H       
  53 H53            1.3165    -4.0262    -5.0979 H       
@<TRIPOS>BOND
   1    1    2 ar
   2    1    6 ar
   3    1   33 1
   4    2    3 ar
   5    2   34 1
   6    3    4 ar
   7    3   35 1
   8    4    5 ar
   9    4    7 ar
  10    5    6 ar
  11    5   10 ar
  12    6   36 1
  13    7    8 ar
  14    7   23 1
  15    8    9 ar
  16    8   37 1
  17    9   10 ar
  18    9   11 1
  19   10   14 1
  20   11   12 am
  21   11   22 2
  22   12   13 1
  23   12   15 1
  24   13   14 2
  25   13   38 1
  26   15   16 1
  27   15   17 1
  28   15   39 1
  29   16   20 1
  30   16   40 1
  31   16   41 1
  32   17   18 1
  33   17   21 1
  34   17   42 1
  35   18   19 1
  36   18   43 1
  37   18   44 1
  38   19   20 1
  39   20   45 1
  40   20   46 1
  41   21   47 1
  42   23   24 1
  43   23   48 1
  44   23   49 1
  45   24   25 2
  46   24   28 1
  47   25   26 1
  48   26   27 ar
  49   26   29 ar
  50   27   28 1
  51   27   32 ar
  52   29   30 ar
  53   29   50 1
  54   30   31 ar
  55   30   51 1
  56   31   32 ar
  57   31   52 1
  58   32   53 1

#	End of record

