#	Name: ASD01901489
#	Creating user name:	WinNT
#	Creation time:	15. 06. 2019 19:53

#	Modifying user name:	WinNT
#	Modification time:	15. 06. 2019 19:53

#	Program:	/corina/corina34_cracker 3.40 0067  02.08.2006

@<TRIPOS>MOLECULE
ASD01901489
  39   42    0    0    0
SMALL
NO_CHARGES


@<TRIPOS>ATOM
   1 C1             0.9171    -0.1598     1.0427 C.ar    
   2 C2             2.0966     0.5559     1.0338 C.ar    
   3 C3             2.3755     1.4228    -0.0103 C.ar    
   4 C4             1.4717     1.5754    -1.0498 C.ar    
   5 C5             0.2900     0.8639    -1.0491 C.ar    
   6 C6             0.0055    -0.0098    -0.0007 C.ar    
   7 C7            -1.2639    -0.7771     0.0045 C.2     
   8 N8            -2.3544    -2.8751    -0.0990 N.2     
   9 C9            -1.2420    -2.1846    -0.1017 C.2     
  10 N10           -2.4175    -0.1481     0.1137 N.2     
  11 N11           -3.6008    -0.8966     0.1158 N.pl3   
  12 C12           -3.5419    -2.2651     0.0049 C.2     
  13 C13           -4.9170    -0.5561     0.2112 C.2     
  14 C14           -5.6309    -1.7042     0.1578 C.2     
  15 N15           -4.7838    -2.7278     0.0314 N.2     
  16 C16           -7.1326    -1.8096     0.2279 C.3     
  17 O17           -7.6961    -0.5031     0.3605 O.3     
  18 C18           -9.0488    -0.4203     0.4377 C.ar    
  19 C19           -9.6816     0.8122     0.5680 C.ar    
  20 C20           -9.8386    -1.5667     0.3826 C.ar    
  21 C21          -11.2097    -1.4424     0.4642 C.ar    
  22 N22          -11.7755    -0.2569     0.5930 N.ar    
  23 C23          -11.0617     0.8542     0.6435 C.ar    
  24 C24            0.6177    -1.1071     2.1759 C.3     
  25 F25          -11.6876     2.0447     0.7706 F       
  26 F26            3.5316     2.1216    -0.0150 F       
  27 H27            2.8035     0.4406     1.8422 H       
  28 H28            1.6927     2.2528    -1.8614 H       
  29 H29           -0.4138     0.9834    -1.8595 H       
  30 H30           -0.2958    -2.6984    -0.1866 H       
  31 H31           -5.3155     0.4428     0.3110 H       
  32 H32           -7.5070    -2.2760    -0.6833 H       
  33 H33           -7.4145    -2.4159     1.0887 H       
  34 H34           -9.1030     1.7231     0.6100 H       
  35 H35           -9.3830    -2.5402     0.2769 H       
  36 H36          -11.8285    -2.3266     0.4219 H       
  37 H37            0.9230    -2.1155     1.8968 H       
  38 H38            1.1654    -0.7946     3.0650 H       
  39 H39           -0.4519    -1.0962     2.3856 H       
@<TRIPOS>BOND
   1    1    6 ar
   2    1    2 ar
   3    1   24 1
   4    2    3 ar
   5    2   27 1
   6    3    4 ar
   7    3   26 1
   8    4    5 ar
   9    4   28 1
  10    5    6 ar
  11    5   29 1
  12    6    7 1
  13    7   10 2
  14    7    9 1
  15    8    9 2
  16    8   12 1
  17    9   30 1
  18   10   11 1
  19   11   13 1
  20   11   12 1
  21   12   15 2
  22   13   14 2
  23   13   31 1
  24   14   15 1
  25   14   16 1
  26   16   17 1
  27   16   32 1
  28   16   33 1
  29   17   18 1
  30   18   19 ar
  31   18   20 ar
  32   19   23 ar
  33   19   34 1
  34   20   21 ar
  35   20   35 1
  36   21   22 ar
  37   21   36 1
  38   22   23 ar
  39   23   25 1
  40   24   37 1
  41   24   38 1
  42   24   39 1

#	End of record

