#	Name: ASD08150653
#	Creating user name:	WinNT
#	Creation time:	15. 06. 2019 21:16

#	Modifying user name:	WinNT
#	Modification time:	15. 06. 2019 21:16

#	Program:	/corina/corina34_cracker 3.40 0067  02.08.2006

@<TRIPOS>MOLECULE
ASD08150653
  63   68    0    0    0
SMALL
NO_CHARGES


@<TRIPOS>ATOM
   1 N1            -0.6370     0.9249    -2.3430 N.am    
   2 C2            -0.4946     0.2786    -3.5164 C.2     
   3 C3             0.6220    -0.5474    -3.7568 C.2     
   4 C4             1.5748    -0.7029    -2.8025 C.2     
   5 C5             1.4284    -0.0240    -1.5671 C.ar    
   6 C6             2.3875    -0.1503    -0.5440 C.ar    
   7 N7             2.2502     0.4775     0.5946 N.ar    
   8 C8             1.1998     1.2706     0.8547 C.ar    
   9 C9             0.1858     1.4561    -0.1172 C.ar    
  10 C10            0.3044     0.7904    -1.3598 C.ar    
  11 C11           -0.9053     2.2840     0.1640 C.ar    
  12 C12           -0.9829     2.9160     1.3947 C.ar    
  13 C13            0.0247     2.7279     2.3512 C.ar    
  14 C14            1.0920     1.9259     2.0924 C.ar    
  15 O15           -1.3433     0.4096    -4.3820 O.2     
  16 C16           -2.1368     3.7958     1.7012 C.ar    
  17 C17           -1.7532     1.7444    -2.1306 C.ar    
  18 C18           -1.7615     3.0463    -2.6146 C.ar    
  19 C19           -2.8619     3.8531    -2.4054 C.ar    
  20 C20           -3.9596     3.3637    -1.7117 C.ar    
  21 C21           -3.9518     2.0636    -1.2276 C.ar    
  22 C22           -2.8541     1.2536    -1.4411 C.ar    
  23 O23           -5.0429     4.1587    -1.5060 O.3     
  24 C24           -3.2236     3.8709     0.8155 C.ar    
  25 N25           -4.2550     4.6386     1.0603 N.ar    
  26 C26           -4.3256     5.3888     2.1651 C.ar    
  27 C27           -3.2678     5.3673     3.1088 C.ar    
  28 C28           -2.1528     4.5462     2.8680 C.ar    
  29 C29           -6.4350     6.0720    -1.9981 C.3     
  30 C30           -5.0701     5.4096    -2.1963 C.3     
  31 N31           -6.6493     6.3336    -0.5686 N.3     
  32 C32           -7.9530     6.9707    -0.3397 C.3     
  33 C33           -5.4417     6.2077     2.4104 C.ar    
  34 C34           -5.4911     6.9627     3.5416 C.ar    
  35 C35           -4.4500     6.9404     4.4677 C.ar    
  36 C36           -3.3529     6.1600     4.2660 C.ar    
  37 C37           -5.1440     1.5334    -0.4735 C.3     
  38 F38           -4.9020     0.2100    -0.0897 F       
  39 F39           -5.3617     2.3167     0.6650 F       
  40 F40           -6.2748     1.5812    -1.2957 F       
  41 H41            0.7196    -1.0586    -4.7032 H       
  42 H42            2.4319    -1.3350    -2.9821 H       
  43 H43            3.2524    -0.7774    -0.7026 H       
  44 H44           -1.6815     2.4300    -0.5725 H       
  45 H45           -0.0476     3.2269     3.3063 H       
  46 H46            1.8589     1.7920     2.8410 H       
  47 H47           -0.9071     3.4274    -3.1542 H       
  48 H48           -2.8683     4.8655    -2.7813 H       
  49 H49           -2.8499     0.2401    -1.0681 H       
  50 H50           -3.2080     3.2816    -0.0894 H       
  51 H51           -1.3299     4.5065     3.5664 H       
  52 H52           -6.4657     7.0125    -2.5482 H       
  53 H53           -7.2175     5.4092    -2.3676 H       
  54 H54           -4.2898     6.0599    -1.8009 H       
  55 H55           -4.8987     5.2416    -3.2596 H       
  56 H56           -6.5615     5.4858    -0.0287 H       
  57 H57           -8.7461     6.3142    -0.6976 H       
  58 H58           -8.0860     7.1533     0.7266 H       
  59 H59           -7.9943     7.9175    -0.8783 H       
  60 H60           -6.2573     6.2378     1.7031 H       
  61 H61           -6.3511     7.5898     3.7244 H       
  62 H62           -4.5145     7.5496     5.3571 H       
  63 H63           -2.5524     6.1506     4.9908 H       
@<TRIPOS>BOND
   1    1    2 am
   2    1   10 1
   3    1   17 1
   4    2    3 1
   5    2   15 2
   6    3    4 2
   7    3   41 1
   8    4    5 1
   9    4   42 1
  10    5    6 ar
  11    5   10 ar
  12    6    7 ar
  13    6   43 1
  14    7    8 ar
  15    8    9 ar
  16    8   14 ar
  17    9   10 ar
  18    9   11 ar
  19   11   12 ar
  20   11   44 1
  21   12   13 ar
  22   12   16 1
  23   13   14 ar
  24   13   45 1
  25   14   46 1
  26   16   24 ar
  27   16   28 ar
  28   17   18 ar
  29   17   22 ar
  30   18   19 ar
  31   18   47 1
  32   19   20 ar
  33   19   48 1
  34   20   21 ar
  35   20   23 1
  36   21   22 ar
  37   21   37 1
  38   22   49 1
  39   23   30 1
  40   24   25 ar
  41   24   50 1
  42   25   26 ar
  43   26   27 ar
  44   26   33 ar
  45   27   28 ar
  46   27   36 ar
  47   28   51 1
  48   29   30 1
  49   29   31 1
  50   29   52 1
  51   29   53 1
  52   30   54 1
  53   30   55 1
  54   31   32 1
  55   31   56 1
  56   32   57 1
  57   32   58 1
  58   32   59 1
  59   33   34 ar
  60   33   60 1
  61   34   35 ar
  62   34   61 1
  63   35   36 ar
  64   35   62 1
  65   36   63 1
  66   37   38 1
  67   37   39 1
  68   37   40 1

#	End of record

