#	Name: ASD01140464
#	Creating user name:	WinNT
#	Creation time:	15. 06. 2019 19:00

#	Modifying user name:	WinNT
#	Modification time:	15. 06. 2019 19:00

#	Program:	/corina/corina34_cracker 3.40 0067  02.08.2006

@<TRIPOS>MOLECULE
ASD01140464
  43   45    0    0    0
SMALL
NO_CHARGES


@<TRIPOS>ATOM
   1 C1            -0.3692     2.4409    -0.1035 C.3     
   2 C2            -0.3996     0.9268    -0.1218 C.3     
   3 C3             1.8344     2.4869     0.8253 C.3     
   4 O4             0.9748     2.9049    -0.2121 O.3     
   5 O5             0.1053     0.3764    -1.3447 O.3     
   6 C6             0.7761    -0.8459    -0.9931 C.3     
   7 O7             0.6792    -1.0298     0.4316 O.3     
   8 C8             0.5122     0.3197     0.9582 C.3     
   9 C9             1.9049     0.9562     0.9489 C.3     
  10 O10            2.4249     0.8229     2.3040 O.3     
  11 C11            1.7746     1.8748     3.0409 C.3     
  12 O12            1.4040     2.9171     2.1225 O.3     
  13 C13            0.1115    -2.0226    -1.7105 C.3     
  14 C14            2.2480    -0.7615    -1.4023 C.3     
  15 C15            0.5228     1.3245     3.7273 C.3     
  16 C16            2.7329     2.4337     4.0945 C.3     
  17 C17            3.2431     3.0215     0.5594 C.3     
  18 O18            3.2067     4.4486     0.4951 O.3     
  19 S19            4.5613     5.0912     0.2331 S.o2    
  20 O20            4.3806     6.4907     0.4002 O.2     
  21 O21            5.5128     4.3368     0.9712 O.2     
  22 N22            4.9155     4.8532    -1.3670 N.am    
  23 H23           -1.4223     0.5803     0.0270 H       
  24 H24            0.0505     0.3302     1.9456 H       
  25 H25            2.5551     0.5103     0.1962 H       
  26 H26           -0.9528     2.8244    -0.9404 H       
  27 H27           -0.8012     2.7999     0.8307 H       
  28 H28            0.1965    -1.8858    -2.7885 H       
  29 H29            0.6058    -2.9502    -1.4218 H       
  30 H30           -0.9413    -2.0701    -1.4321 H       
  31 H31            2.5990     0.2639    -1.2867 H       
  32 H32            2.8398    -1.4218    -0.7683 H       
  33 H33            2.3537    -1.0665    -2.4434 H       
  34 H34            0.7100     0.3035     4.0601 H       
  35 H35            0.2764     1.9474     4.5872 H       
  36 H36           -0.3097     1.3304     3.0238 H       
  37 H37            3.6321     2.8084     3.6055 H       
  38 H38            2.2465     3.2469     4.6331 H       
  39 H39            3.0029     1.6439     4.7955 H       
  40 H40            3.9077     2.7110     1.3656 H       
  41 H41            3.6098     2.6244    -0.3871 H       
  42 H42            4.2922     4.3748    -1.9358 H       
  43 H43            5.7463     5.1922    -1.7355 H       
@<TRIPOS>BOND
   1    1    2 1
   2    1    4 1
   3    1   26 1
   4    1   27 1
   5    2    8 1
   6    2   23 1
   7    2    5 1
   8    3    4 1
   9    3   12 1
  10    3    9 1
  11    3   17 1
  12    5    6 1
  13    6    7 1
  14    6   13 1
  15    6   14 1
  16    7    8 1
  17    8    9 1
  18    8   24 1
  19    9   10 1
  20    9   25 1
  21   10   11 1
  22   11   12 1
  23   11   15 1
  24   11   16 1
  25   13   28 1
  26   13   29 1
  27   13   30 1
  28   14   31 1
  29   14   32 1
  30   14   33 1
  31   15   34 1
  32   15   35 1
  33   15   36 1
  34   16   37 1
  35   16   38 1
  36   16   39 1
  37   17   18 1
  38   17   40 1
  39   17   41 1
  40   18   19 1
  41   19   20 2
  42   19   21 2
  43   19   22 am
  44   22   42 1
  45   22   43 1

#	End of record

