#	Name: ASD00170150
#	Creating user name:	WinNT
#	Creation time:	15. 06. 2019 18:31

#	Modifying user name:	WinNT
#	Modification time:	15. 06. 2019 18:31

#	Program:	/corina/corina34_cracker 3.40 0067  02.08.2006

@<TRIPOS>MOLECULE
ASD00170150
 100  106    0    0    0
SMALL
NO_CHARGES


@<TRIPOS>ATOM
   1 C1            -2.0144     1.9750    -0.1785 C.3     
   2 C2            -2.2469     0.4509    -0.0381 C.3     
   3 C3            -0.9578    -0.0680     0.6279 C.3     
   4 O4            -0.0780     1.0570     0.7904 O.3     
   5 C5            -0.9101     2.2337     0.8779 C.3     
   6 N6            -0.1427     3.4346     0.5386 N.pl3   
   7 C7             1.0323     3.4728    -0.1514 C.2     
   8 N8             1.4360     4.7040    -0.2741 N.2     
   9 C9             0.5485     5.5317     0.3275 C.ar    
  10 C10           -0.4779     4.7276     0.8519 C.ar    
  11 C11           -1.5302     6.6142     1.6369 C.ar    
  12 N12           -1.4873     5.3061     1.4941 N.ar    
  13 C13            0.4604     6.9223     0.5096 C.ar    
  14 N14           -0.5843     7.4094     1.1717 N.ar    
  15 N15            1.4392     7.7653     0.0116 N.pl3   
  16 C16            1.3967     9.1346     0.3000 C.ar    
  17 C17            0.8644    10.9228     1.8070 C.ar    
  18 C18            0.9055     9.5720     1.5231 C.ar    
  19 C19            1.8510    10.0559    -0.6345 C.ar    
  20 C20            1.8092    11.4063    -0.3490 C.ar    
  21 C21            1.3136    11.8427     0.8709 C.ar    
  22 O22            1.2723    13.1727     1.1511 O.3     
  23 C23            1.7509    14.0636     0.1414 C.3     
  24 C24            1.6264    15.5067     0.6340 C.3     
  25 C25            2.1388    16.4606    -0.4471 C.3     
  26 C26            2.0143    17.9037     0.0455 C.3     
  27 C27            2.5267    18.8576    -1.0355 C.3     
  28 C28            2.4023    20.3008    -0.5430 C.3     
  29 C29            2.9146    21.2546    -1.6240 C.3     
  30 C30            2.7902    22.6978    -1.1314 C.3     
  31 C31            3.3025    23.6516    -2.2125 C.3     
  32 N32            3.1830    25.0372    -1.7396 N.3     
  33 C33            4.1092    26.7331    -0.2348 C.3     
  34 C34            3.9291    25.2330    -0.4883 C.3     
  35 C35            1.7724    25.4186    -1.5766 C.3     
  36 C36            2.7522    27.4047    -0.3787 C.2     
  37 C37            1.7137    26.8107    -0.9787 C.2     
  38 S38            0.3055    27.8567    -0.9710 S.3     
  39 C39            1.1317    29.1009    -0.1528 C.2     
  40 C40            3.3880    29.5946     0.7961 C.2     
  41 C41            2.4290    28.7335     0.1046 C.2     
  42 N42            0.5738    30.3124     0.2020 N.pl3   
  43 C43            4.1264    30.5898    -1.3652 C.ar    
  44 C44            5.2614    31.2326     0.6672 C.ar    
  45 C45            4.2741    30.4878     0.0189 C.ar    
  46 C46            4.9563    31.4255    -2.0851 C.ar    
  47 C47            5.9343    32.1621    -1.4355 C.ar    
  48 C48            6.0847    32.0642    -0.0621 C.ar    
  49 C49           -0.2976    -1.1200    -0.2657 C.3     
  50 O50           -3.3791     0.1923     0.7946 O.3     
  51 O51           -3.2027     2.7033     0.1371 O.3     
  52 O52            0.8308    -1.6787     0.4100 O.3     
  53 O53            3.4567    29.5761     2.0117 O.2     
  54 Cl54           4.7751    31.5538    -3.8068 Cl      
  55 Cl55           6.9751    33.2109    -2.3467 Cl      
  56 H56           -1.6614     2.2241    -1.1792 H       
  57 H57           -2.3806    -0.0065    -1.0184 H       
  58 H58           -1.1913    -0.4995     1.6013 H       
  59 H59           -1.3447     2.3232     1.8735 H       
  60 H60            1.5517     2.6088    -0.5388 H       
  61 H61           -2.3647     7.0524     2.1642 H       
  62 H62            2.1544     7.4073    -0.5373 H       
  63 H63            0.4825    11.2632     2.7582 H       
  64 H64            0.5555     8.8560     2.2519 H       
  65 H65            2.2373     9.7163    -1.5842 H       
  66 H66            2.1628    12.1229    -1.0755 H       
  67 H67            2.7963    13.8417    -0.0731 H       
  68 H68            1.1591    13.9368    -0.7651 H       
  69 H69            0.5810    15.7286     0.8485 H       
  70 H70            2.2182    15.6336     1.5406 H       
  71 H71            3.1842    16.2387    -0.6615 H       
  72 H72            1.5471    16.3338    -1.3536 H       
  73 H73            0.9689    18.1256     0.2600 H       
  74 H74            2.6061    18.0306     0.9521 H       
  75 H75            3.5721    18.6357    -1.2500 H       
  76 H76            1.9350    18.7308    -1.9421 H       
  77 H77            1.3568    20.5226    -0.3285 H       
  78 H78            2.9940    20.4276     0.3636 H       
  79 H79            3.9600    21.0327    -1.8385 H       
  80 H80            2.3229    21.1278    -2.5306 H       
  81 H81            1.7448    22.9196    -0.9170 H       
  82 H82            3.3819    22.8246    -0.2249 H       
  83 H83            4.3479    23.4297    -2.4270 H       
  84 H84            2.7108    23.5248    -3.1190 H       
  85 H85            4.4935    26.8924     0.7727 H       
  86 H86            4.8044    27.1486    -0.9643 H       
  87 H87            3.3756    24.7881     0.3387 H       
  88 H88            4.9068    24.7579    -0.5696 H       
  89 H89            1.2781    25.4165    -2.5481 H       
  90 H90            1.2772    24.7128    -0.9097 H       
  91 H91           -0.3244    30.5362    -0.0880 H       
  92 H92            1.0799    30.9400     0.7413 H       
  93 H93            3.3674    30.0127    -1.8725 H       
  94 H94            5.3802    31.1571     1.7380 H       
  95 H95            6.8485    32.6405     0.4387 H       
  96 H96           -1.0153    -1.9095    -0.4885 H       
  97 H97            0.0297    -0.6536    -1.1949 H       
  98 H98           -3.5708    -0.7476     0.9169 H       
  99 H99           -3.9507     2.5060    -0.4430 H       
 100 H100           1.2990    -2.3546    -0.0989 H       
@<TRIPOS>BOND
   1    1    2 1
   2    1    5 1
   3    1   51 1
   4    1   56 1
   5    2    3 1
   6    2   50 1
   7    2   57 1
   8    3    4 1
   9    3   49 1
  10    3   58 1
  11    4    5 1
  12    5    6 1
  13    5   59 1
  14    6    7 1
  15    6   10 1
  16    7    8 2
  17    7   60 1
  18    8    9 1
  19    9   13 ar
  20    9   10 ar
  21   10   12 ar
  22   11   12 ar
  23   11   14 ar
  24   11   61 1
  25   13   14 ar
  26   13   15 1
  27   15   16 1
  28   15   62 1
  29   16   19 ar
  30   16   18 ar
  31   17   18 ar
  32   17   21 ar
  33   17   63 1
  34   18   64 1
  35   19   20 ar
  36   19   65 1
  37   20   21 ar
  38   20   66 1
  39   21   22 1
  40   22   23 1
  41   23   24 1
  42   23   67 1
  43   23   68 1
  44   24   25 1
  45   24   69 1
  46   24   70 1
  47   25   26 1
  48   25   71 1
  49   25   72 1
  50   26   27 1
  51   26   73 1
  52   26   74 1
  53   27   28 1
  54   27   75 1
  55   27   76 1
  56   28   29 1
  57   28   77 1
  58   28   78 1
  59   29   30 1
  60   29   79 1
  61   29   80 1
  62   30   31 1
  63   30   81 1
  64   30   82 1
  65   31   32 1
  66   31   83 1
  67   31   84 1
  68   32   35 1
  69   32   34 1
  70   33   34 1
  71   33   36 1
  72   33   85 1
  73   33   86 1
  74   34   87 1
  75   34   88 1
  76   35   37 1
  77   35   89 1
  78   35   90 1
  79   36   37 2
  80   36   41 1
  81   37   38 1
  82   38   39 1
  83   39   42 1
  84   39   41 2
  85   40   41 1
  86   40   45 1
  87   40   53 2
  88   42   91 1
  89   42   92 1
  90   43   46 ar
  91   43   45 ar
  92   43   93 1
  93   44   45 ar
  94   44   48 ar
  95   44   94 1
  96   46   47 ar
  97   46   54 1
  98   47   48 ar
  99   47   55 1
 100   48   95 1
 101   49   52 1
 102   49   96 1
 103   49   97 1
 104   50   98 1
 105   51   99 1
 106   52  100 1

#	End of record

