#	Name: ASD01915233
#	Creating user name:	WinNT
#	Creation time:	15. 06. 2019 20:05

#	Modifying user name:	WinNT
#	Modification time:	15. 06. 2019 20:05

#	Program:	/corina/corina34_cracker 3.40 0067  02.08.2006

@<TRIPOS>MOLECULE
ASD01915233
  31   32    0    0    0
SMALL
NO_CHARGES


@<TRIPOS>ATOM
   1 C1            -0.0077     1.3435    -0.1945 C.ar    
   2 C2             0.0217    -0.0349     0.0276 C.ar    
   3 C3            -1.1557    -0.7607     0.0446 C.ar    
   4 C4            -2.3677    -0.1269    -0.1581 C.ar    
   5 C5            -2.4093     1.2518    -0.3813 C.ar    
   6 C6            -1.2265     1.9886    -0.3941 C.ar    
   7 F7            -1.1212    -2.0941     0.2595 F       
   8 C8             1.2516     2.1178    -0.2118 C.2     
   9 N9             2.4293     1.4934    -0.0131 N.am    
  10 O10            1.2247     3.3176    -0.4053 O.2     
  11 C11            3.6284     2.2078    -0.1264 C.ar    
  12 C12            3.6896     3.5322     0.2864 C.ar    
  13 C13            4.8723     4.2360     0.1743 C.ar    
  14 C14            5.9991     3.6204    -0.3510 C.ar    
  15 C15            5.9387     2.2974    -0.7636 C.ar    
  16 C16            4.7584     1.5904    -0.6464 C.ar    
  17 O17            7.1631     4.3144    -0.4619 O.3     
  18 C18            8.2836     3.6183    -1.0115 C.3     
  19 C19           -3.6651     1.9071    -0.5910 C.1     
  20 N20           -4.6614     2.4269    -0.7574 N.1     
  21 H21            0.9656    -0.5352     0.1861 H       
  22 H22           -3.2839    -0.6986    -0.1441 H       
  23 H23           -1.2538     3.0545    -0.5659 H       
  24 H24            2.4464     0.5492     0.2084 H       
  25 H25            2.8123     4.0118     0.6948 H       
  26 H26            4.9201     5.2661     0.4954 H       
  27 H27            6.8162     1.8189    -1.1728 H       
  28 H28            4.7115     0.5604    -0.9677 H       
  29 H29            8.5158     2.7544    -0.3887 H       
  30 H30            8.0443     3.2844    -2.0212 H       
  31 H31            9.1453     4.2850    -1.0439 H       
@<TRIPOS>BOND
   1    1    2 ar
   2    1    8 1
   3    1    6 ar
   4    2    3 ar
   5    2   21 1
   6    3    4 ar
   7    3    7 1
   8    4    5 ar
   9    4   22 1
  10    5    6 ar
  11    5   19 1
  12    6   23 1
  13    8    9 am
  14    8   10 2
  15    9   11 1
  16    9   24 1
  17   11   12 ar
  18   11   16 ar
  19   12   13 ar
  20   12   25 1
  21   13   14 ar
  22   13   26 1
  23   14   15 ar
  24   14   17 1
  25   15   16 ar
  26   15   27 1
  27   16   28 1
  28   17   18 1
  29   18   29 1
  30   18   30 1
  31   18   31 1
  32   19   20 3

#	End of record

