#	Name: ASD03740038
#	Creating user name:	WinNT
#	Creation time:	15. 06. 2019 20:46

#	Modifying user name:	WinNT
#	Modification time:	15. 06. 2019 20:46

#	Program:	/corina/corina34_cracker 3.40 0067  02.08.2006

@<TRIPOS>MOLECULE
ASD03740038
  47   48    0    0    0
SMALL
NO_CHARGES


@<TRIPOS>ATOM
   1 C1            -0.4273     1.1665     0.4246 C.3     
   2 N2            -0.2787    -0.2910     0.5319 N.3     
   3 C3             0.9348     1.8114     0.4214 C.ar    
   4 C4             1.0870     3.1075     0.8811 C.ar    
   5 C5             2.3429     3.7005     0.8780 C.ar    
   6 C6             3.4412     2.9905     0.4137 C.ar    
   7 C7             3.2826     1.6956    -0.0444 C.ar    
   8 C8             2.0321     1.1055    -0.0355 C.ar    
   9 O9             2.4959     4.9741     1.3286 O.3     
  10 C10            2.7667     5.1559     2.6477 C.ar    
  11 C11            2.9311     6.4376     3.1533 C.ar    
  12 C12            3.2064     6.6196     4.4946 C.ar    
  13 C13            3.3182     5.5260     5.3333 C.ar    
  14 C14            3.1553     4.2477     4.8320 C.ar    
  15 C15            2.8738     4.0604     3.4926 C.ar    
  16 Cl16           5.0129     3.7277     0.4074 Cl      
  17 F17            0.0152     3.7955     1.3319 F       
  18 C18           -1.1574     1.5104    -0.8752 C.3     
  19 C19           -2.5912     0.9803    -0.8104 C.3     
  20 C20           -0.3847    -0.7295     1.9299 C.3     
  21 C21            0.1576    -2.1542     2.0601 C.3     
  22 C22           -1.8516    -0.7006     2.3636 C.3     
  23 C23            1.6247    -2.1667     1.7159 C.2     
  24 N24            2.2975    -3.3338     1.6753 N.am    
  25 O25            2.2001    -1.1264     1.4756 O.2     
  26 H26           -1.0025     1.5365     1.2733 H       
  27 H27           -0.9530    -0.7669    -0.0485 H       
  28 H28            4.1371     1.1430    -0.4061 H       
  29 H29            1.9118     0.0925    -0.3900 H       
  30 H30            2.8442     7.2922     2.4985 H       
  31 H31            3.3348     7.6170     4.8885 H       
  32 H32            3.5335     5.6705     6.3817 H       
  33 H33            3.2439     3.3952     5.4890 H       
  34 H34            2.7416     3.0620     3.1026 H       
  35 H35           -1.1756     2.5923    -1.0064 H       
  36 H36           -0.6379     1.0511    -1.7162 H       
  37 H37           -2.5731    -0.1043    -0.7039 H       
  38 H38           -3.1031     1.4209     0.0451 H       
  39 H39           -3.1188     1.2467    -1.7262 H       
  40 H40            0.1954    -0.0605     2.5655 H       
  41 H41            0.0216    -2.5027     3.0839 H       
  42 H42           -0.3812    -2.8118     1.3778 H       
  43 H43           -2.4232    -1.4049     1.7592 H       
  44 H44           -1.9254    -0.9802     3.4146 H       
  45 H45           -2.2514     0.3041     2.2261 H       
  46 H46            1.8373    -4.1658     1.8676 H       
  47 H47            3.2418    -3.3419     1.4539 H       
@<TRIPOS>BOND
   1    1    2 1
   2    1    3 1
   3    1   18 1
   4    1   26 1
   5    2   20 1
   6    2   27 1
   7    3    4 ar
   8    3    8 ar
   9    4    5 ar
  10    4   17 1
  11    5    6 ar
  12    5    9 1
  13    6    7 ar
  14    6   16 1
  15    7    8 ar
  16    7   28 1
  17    8   29 1
  18    9   10 1
  19   10   11 ar
  20   10   15 ar
  21   11   12 ar
  22   11   30 1
  23   12   13 ar
  24   12   31 1
  25   13   14 ar
  26   13   32 1
  27   14   15 ar
  28   14   33 1
  29   15   34 1
  30   18   19 1
  31   18   35 1
  32   18   36 1
  33   19   37 1
  34   19   38 1
  35   19   39 1
  36   20   21 1
  37   20   22 1
  38   20   40 1
  39   21   23 1
  40   21   41 1
  41   21   42 1
  42   22   43 1
  43   22   44 1
  44   22   45 1
  45   23   24 am
  46   23   25 2
  47   24   46 1
  48   24   47 1

#	End of record

