#	Name: ASD01882853
#	Creating user name:	WinNT
#	Creation time:	15. 06. 2019 19:45

#	Modifying user name:	WinNT
#	Modification time:	15. 06. 2019 19:45

#	Program:	/corina/corina34_cracker 3.40 0067  02.08.2006

@<TRIPOS>MOLECULE
ASD01882853
  56   60    0    0    0
SMALL
NO_CHARGES


@<TRIPOS>ATOM
   1 C1            -0.0148     1.3201     0.0625 C.2     
   2 N2             0.0022    -0.0042     0.0047 N.2     
   3 C3             1.1482    -0.6909    -0.0625 C.2     
   4 C4             2.3817     0.0005    -0.0729 C.2     
   5 C5             2.3591     1.3625    -0.0132 C.2     
   6 N6             1.1492     2.0130     0.0545 N.pl3   
   7 O7            -1.0975     2.1257     0.1272 O.3     
   8 C8             0.8552     3.4541     0.1260 C.3     
   9 C9            -0.6813     3.5169     0.1756 C.3     
  10 O10            1.1293    -1.9116    -0.1144 O.2     
  11 C11            3.6217     2.1319    -0.0206 C.ar    
  12 C12            4.6720     1.7632     0.8212 C.ar    
  13 C13            5.8477     2.4850     0.8091 C.ar    
  14 C14            5.9868     3.5722    -0.0352 C.ar    
  15 C15            4.9494     3.9430    -0.8723 C.ar    
  16 C16            3.7705     3.2264    -0.8737 C.ar    
  17 C17           -1.2216     4.2798    -1.0356 C.3     
  18 O18           -2.6467     4.3508    -0.9568 O.3     
  19 C19           -3.2886     5.0006    -1.9631 C.ar    
  20 C20           -4.6718     5.1073    -1.9502 C.ar    
  21 C21           -5.3220     5.7682    -2.9743 C.ar    
  22 C22           -4.5954     6.3231    -4.0116 C.ar    
  23 C23           -3.2168     6.2178    -4.0270 C.ar    
  24 C24           -2.5615     5.5632    -3.0021 C.ar    
  25 C25           -5.3072     7.0436    -5.1275 C.3     
  26 C26           -4.8259     8.4947    -5.1865 C.3     
  27 C27           -5.5486     9.2262    -6.3194 C.3     
  28 C28           -5.2444     8.5335    -7.6493 C.3     
  29 C29           -5.7258     7.0824    -7.5904 C.3     
  30 C30           -5.0031     6.3510    -6.4574 C.3     
  31 H31            3.3173    -0.5363    -0.1264 H       
  32 H32            1.2866     3.8880     1.0281 H       
  33 H33            1.2285     3.9649    -0.7615 H       
  34 H34           -1.0167     3.9833     1.1019 H       
  35 H35            4.5646     0.9149     1.4810 H       
  36 H36            6.6611     2.2009     1.4603 H       
  37 H37            6.9091     4.1342    -0.0407 H       
  38 H38            5.0642     4.7929    -1.5287 H       
  39 H39            2.9629     3.5144    -1.5305 H       
  40 H40           -0.8075     5.2880    -1.0444 H       
  41 H41           -0.9338     3.7608    -1.9499 H       
  42 H42           -5.2398     4.6737    -1.1404 H       
  43 H43           -6.3987     5.8513    -2.9649 H       
  44 H44           -2.6516     6.6514    -4.8387 H       
  45 H45           -1.4844     5.4853    -3.0120 H       
  46 H46           -6.3817     7.0243    -4.9452 H       
  47 H47           -5.0425     8.9881    -4.2390 H       
  48 H48           -3.7514     8.5140    -5.3688 H       
  49 H49           -6.6230     9.2069    -6.1371 H       
  50 H50           -5.2056    10.2600    -6.3614 H       
  51 H51           -5.7593     9.0546    -8.4564 H       
  52 H52           -4.1700     8.5528    -7.8316 H       
  53 H53           -6.8003     7.0632    -7.4081 H       
  54 H54           -5.5091     6.5890    -8.5378 H       
  55 H55           -3.9286     6.3702    -6.6397 H       
  56 H56           -5.3460     5.3172    -6.4154 H       
@<TRIPOS>BOND
   1    1    2 2
   2    1    6 1
   3    1    7 1
   4    2    3 1
   5    3    4 1
   6    3   10 2
   7    4    5 2
   8    4   31 1
   9    5    6 1
  10    5   11 1
  11    6    8 1
  12    7    9 1
  13    8    9 1
  14    8   32 1
  15    8   33 1
  16    9   17 1
  17    9   34 1
  18   11   12 ar
  19   11   16 ar
  20   12   13 ar
  21   12   35 1
  22   13   14 ar
  23   13   36 1
  24   14   15 ar
  25   14   37 1
  26   15   16 ar
  27   15   38 1
  28   16   39 1
  29   17   18 1
  30   17   40 1
  31   17   41 1
  32   18   19 1
  33   19   20 ar
  34   19   24 ar
  35   20   21 ar
  36   20   42 1
  37   21   22 ar
  38   21   43 1
  39   22   23 ar
  40   22   25 1
  41   23   24 ar
  42   23   44 1
  43   24   45 1
  44   25   26 1
  45   25   30 1
  46   25   46 1
  47   26   27 1
  48   26   47 1
  49   26   48 1
  50   27   28 1
  51   27   49 1
  52   27   50 1
  53   28   29 1
  54   28   51 1
  55   28   52 1
  56   29   30 1
  57   29   53 1
  58   29   54 1
  59   30   55 1
  60   30   56 1

#	End of record

