#	Name: ASD04880001
#	Creating user name:	WinNT
#	Creation time:	15. 06. 2019 20:52

#	Modifying user name:	WinNT
#	Modification time:	15. 06. 2019 20:52

#	Program:	/corina/corina34_cracker 3.40 0067  02.08.2006

@<TRIPOS>MOLECULE
ASD04880001
  53   55    0    0    0
SMALL
NO_CHARGES


@<TRIPOS>ATOM
   1 N1            -0.6918    -0.6274    -0.3877 N.1     
   2 C2            -0.5047     0.4926    -0.3546 C.1     
   3 C3            -0.2623     1.9438    -0.3118 C.3     
   4 C4             1.2203     2.2035    -0.2385 C.ar    
   5 C5             1.8635     2.8310    -1.2865 C.ar    
   6 C6             3.2231     3.0713    -1.2239 C.ar    
   7 C7             3.9503     2.6822    -0.1057 C.ar    
   8 C8             3.3112     2.0512     0.9514 C.ar    
   9 C9             1.9407     1.8152     0.8899 C.ar    
  10 C10            1.2506     1.1411     2.0175 C.ar    
  11 C11            0.7002    -0.1326     1.8535 C.ar    
  12 C12            0.0670    -0.7188     2.9363 C.ar    
  13 C13            0.0002    -0.0314     4.1342 C.ar    
  14 N14            0.5291     1.1707     4.2588 N.ar    
  15 C15            1.1460     1.7658     3.2586 C.ar    
  16 N16            5.3262     2.9262    -0.0462 N.am    
  17 C17            6.1209     2.1276     0.6936 C.2     
  18 O18            5.6580     1.1416     1.2341 O.2     
  19 C19            7.5527     2.4499     0.8477 C.ar    
  20 C20            8.0860     3.5822     0.2276 C.ar    
  21 C21            9.4235     3.8819     0.3725 C.ar    
  22 C22           10.2434     3.0607     1.1340 C.ar    
  23 C23            9.7174     1.9290     1.7562 C.ar    
  24 C24            8.3771     1.6259     1.6194 C.ar    
  25 O25           10.5235     1.1263     2.5017 O.3     
  26 C26            9.9177    -0.0159     3.1103 C.3     
  27 O27           11.5607     3.3597     1.2730 O.3     
  28 C28           12.0332     4.5332     0.6084 C.3     
  29 C29           -0.8321     2.5936    -1.5743 C.3     
  30 C30           -0.9459     2.5389     0.9210 C.3     
  31 H31            1.3027     3.1346    -2.1581 H       
  32 H32            3.7217     3.5625    -2.0464 H       
  33 H33            3.8745     1.7479     1.8216 H       
  34 H34            0.7666    -0.6467     0.9060 H       
  35 H35           -0.3703    -1.7021     2.8462 H       
  36 H36           -0.4929    -0.4855     4.9809 H       
  37 H37            1.5667     2.7505     3.3993 H       
  38 H38            5.7085     3.6702    -0.5374 H       
  39 H39            7.4504     4.2227    -0.3658 H       
  40 H40            9.8346     4.7575    -0.1079 H       
  41 H41            7.9683     0.7500     2.1010 H       
  42 H42           10.6692    -0.5684     3.6743 H       
  43 H43            9.1245     0.3090     3.7836 H       
  44 H44            9.4975    -0.6594     2.3375 H       
  45 H45           11.8668     4.4352    -0.4643 H       
  46 H46           11.4942     5.4040     0.9816 H       
  47 H47           13.0991     4.6556     0.8010 H       
  48 H48           -1.9045     2.4057    -1.6273 H       
  49 H49           -0.6527     3.6682    -1.5426 H       
  50 H50           -0.3452     2.1697    -2.4526 H       
  51 H51           -0.6257     1.9970     1.8109 H       
  52 H52           -0.6716     3.5894     1.0169 H       
  53 H53           -2.0272     2.4540     0.8133 H       
@<TRIPOS>BOND
   1    1    2 3
   2    2    3 1
   3    3    4 1
   4    3   29 1
   5    3   30 1
   6    4    5 ar
   7    4    9 ar
   8    5    6 ar
   9    5   31 1
  10    6    7 ar
  11    6   32 1
  12    7    8 ar
  13    7   16 1
  14    8    9 ar
  15    8   33 1
  16    9   10 1
  17   10   11 ar
  18   10   15 ar
  19   11   12 ar
  20   11   34 1
  21   12   13 ar
  22   12   35 1
  23   13   14 ar
  24   13   36 1
  25   14   15 ar
  26   15   37 1
  27   16   17 am
  28   16   38 1
  29   17   18 2
  30   17   19 1
  31   19   20 ar
  32   19   24 ar
  33   20   21 ar
  34   20   39 1
  35   21   22 ar
  36   21   40 1
  37   22   23 ar
  38   22   27 1
  39   23   24 ar
  40   23   25 1
  41   24   41 1
  42   25   26 1
  43   26   42 1
  44   26   43 1
  45   26   44 1
  46   27   28 1
  47   28   45 1
  48   28   46 1
  49   28   47 1
  50   29   48 1
  51   29   49 1
  52   29   50 1
  53   30   51 1
  54   30   52 1
  55   30   53 1

#	End of record

