#	Name: ASD03731748
#	Creating user name:	WinNT
#	Creation time:	15. 06. 2019 20:46

#	Modifying user name:	WinNT
#	Modification time:	15. 06. 2019 20:46

#	Program:	/corina/corina34_cracker 3.40 0067  02.08.2006

@<TRIPOS>MOLECULE
ASD03731748
  36   37    0    0    0
SMALL
NO_CHARGES


@<TRIPOS>ATOM
   1 C1             0.7588     1.4152    -0.4019 C.2     
   2 C2             0.5740    -0.0457    -0.3015 C.ar    
   3 C3             1.5324    -0.9114    -0.8353 C.ar    
   4 C4             1.3567    -2.2736    -0.7391 C.ar    
   5 C5             0.2277    -2.7882    -0.1120 C.ar    
   6 C6            -0.7282    -1.9303     0.4199 C.ar    
   7 C7            -0.5569    -0.5668     0.3328 C.ar    
   8 O8             1.7458     1.8669    -0.9497 O.2     
   9 N9            -0.1694     2.2485     0.1086 N.am    
  10 S10            0.0379     3.8876    -0.0041 S.o2    
  11 O11           -1.1002     4.4306     0.6510 O.2     
  12 O12            1.3482     4.1105     0.4985 O.2     
  13 C13           -0.0281     4.2308    -1.7841 C.3     
  14 O14            0.0581    -4.1313    -0.0192 O.3     
  15 C15            0.5845    -4.7679     1.0602 C.ar    
  16 C16            0.5309    -6.1519     1.1446 C.ar    
  17 C17            1.0666    -6.7974     2.2418 C.ar    
  18 C18            1.6566    -6.0641     3.2577 C.ar    
  19 C19            1.7108    -4.6832     3.1749 C.ar    
  20 C20            1.1808    -4.0351     2.0758 C.ar    
  21 C21            1.0087    -8.3005     2.3338 C.3     
  22 F22            0.3709    -8.8129     1.1990 F       
  23 F23            2.3080    -8.8134     2.4100 F       
  24 F24            0.2934    -8.6704     3.4778 F       
  25 F25            2.1794    -6.6968     4.3308 F       
  26 H26            2.4096    -0.5124    -1.3229 H       
  27 H27            2.0968    -2.9433    -1.1518 H       
  28 H28           -1.6044    -2.3338     0.9057 H       
  29 H29           -1.2977     0.0990     0.7502 H       
  30 H30           -0.9588     1.8881     0.5421 H       
  31 H31           -0.9934     3.9146    -2.1796 H       
  32 H32            0.1011     5.2999    -1.9530 H       
  33 H33            0.7682     3.6843    -2.2893 H       
  34 H34            0.0703    -6.7240     0.3528 H       
  35 H35            2.1712    -4.1126     3.9679 H       
  36 H36            1.2269    -2.9581     2.0095 H       
@<TRIPOS>BOND
   1    1    2 1
   2    1    8 2
   3    1    9 am
   4    2    3 ar
   5    2    7 ar
   6    3    4 ar
   7    3   26 1
   8    4    5 ar
   9    4   27 1
  10    5    6 ar
  11    5   14 1
  12    6    7 ar
  13    6   28 1
  14    7   29 1
  15    9   10 am
  16    9   30 1
  17   10   11 2
  18   10   12 2
  19   10   13 1
  20   13   31 1
  21   13   32 1
  22   13   33 1
  23   14   15 1
  24   15   16 ar
  25   15   20 ar
  26   16   17 ar
  27   16   34 1
  28   17   18 ar
  29   17   21 1
  30   18   19 ar
  31   18   25 1
  32   19   20 ar
  33   19   35 1
  34   20   36 1
  35   21   22 1
  36   21   23 1
  37   21   24 1

#	End of record

