#	Name: ASD01940709
#	Creating user name:	WinNT
#	Creation time:	15. 06. 2019 20:13

#	Modifying user name:	WinNT
#	Modification time:	15. 06. 2019 20:13

#	Program:	/corina/corina34_cracker 3.40 0067  02.08.2006

@<TRIPOS>MOLECULE
ASD01940709
  49   51    0    0    0
SMALL
NO_CHARGES


@<TRIPOS>ATOM
   1 C1             0.5733     0.4285    -1.3079 C.ar    
   2 C2            -0.0551    -0.1164    -0.2033 C.ar    
   3 C3             0.5347    -0.0299     1.0462 C.ar    
   4 C4             1.7579     0.6040     1.1955 C.ar    
   5 C5             2.3936     1.1530     0.0898 C.ar    
   6 C6             1.7978     1.0642    -1.1672 C.ar    
   7 N7             2.4350     1.6161    -2.2866 N.am    
   8 S8             1.5400     2.1070    -3.5905 S.o2    
   9 C9             0.6140     3.5458    -2.9881 C.3     
  10 O10            2.5089     2.5041    -4.5511 O.2     
  11 O11            0.6618     1.0187    -3.8425 O.2     
  12 F12           -0.0836    -0.5640     2.1221 F       
  13 F13            2.3313     0.6880     2.4159 F       
  14 N14            3.6308     1.7953     0.2374 N.pl3   
  15 C15            4.8146     1.0936    -0.0007 C.ar    
  16 C16            6.0415     1.6807     0.2842 C.ar    
  17 C17            4.7682    -0.1950    -0.5177 C.ar    
  18 C18            5.9409    -0.8862    -0.7515 C.ar    
  19 C19            7.1601    -0.2970    -0.4717 C.ar    
  20 C20            7.2099     0.9839     0.0480 C.ar    
  21 C21            6.0968     3.0764     0.8500 C.3     
  22 C22            8.4375    -1.0545    -0.7277 C.3     
  23 C23           -0.2780     4.1211    -4.1075 C.3     
  24 C24           -0.2424     5.6519    -3.9550 C.3     
  25 C25            0.6701     5.9534    -2.7482 C.3     
  26 C26            1.5803     4.7049    -2.6390 C.3     
  27 O27            0.2954     6.2491    -5.1366 O.3     
  28 H28            0.1122     0.3552    -2.2818 H       
  29 H29           -1.0089    -0.6105    -0.3156 H       
  30 H30            3.4003     1.7105    -2.2976 H       
  31 H31            0.0112     3.2748    -2.1213 H       
  32 H32            3.6647     2.7270     0.5050 H       
  33 H33            3.8163    -0.6560    -0.7361 H       
  34 H34            5.9056    -1.8881    -1.1530 H       
  35 H35            8.1639     1.4411     0.2653 H       
  36 H36            6.0729     3.0283     1.9386 H       
  37 H37            7.0175     3.5628     0.5278 H       
  38 H38            5.2399     3.6475     0.4926 H       
  39 H39            8.7802    -0.8561    -1.7433 H       
  40 H40            9.1994    -0.7325    -0.0178 H       
  41 H41            8.2568    -2.1226    -0.6074 H       
  42 H42            0.1149     3.8338    -5.0828 H       
  43 H43           -1.2996     3.7583    -3.9944 H       
  44 H44           -1.2467     6.0319    -3.7679 H       
  45 H45            1.2674     6.8458    -2.9352 H       
  46 H46            0.0766     6.0733    -1.8418 H       
  47 H47            1.9651     4.5950    -1.6251 H       
  48 H48            2.3965     4.7577    -3.3595 H       
  49 H49            0.3439     7.2143    -5.1023 H       
@<TRIPOS>BOND
   1    1    2 ar
   2    1    6 ar
   3    1   28 1
   4    2    3 ar
   5    2   29 1
   6    3    4 ar
   7    3   12 1
   8    4    5 ar
   9    4   13 1
  10    5    6 ar
  11    5   14 1
  12    6    7 1
  13    7    8 am
  14    7   30 1
  15    8   10 2
  16    8   11 2
  17    8    9 1
  18    9   23 1
  19    9   26 1
  20    9   31 1
  21   14   15 1
  22   14   32 1
  23   15   16 ar
  24   15   17 ar
  25   16   21 1
  26   16   20 ar
  27   17   18 ar
  28   17   33 1
  29   18   19 ar
  30   18   34 1
  31   19   20 ar
  32   19   22 1
  33   20   35 1
  34   21   36 1
  35   21   37 1
  36   21   38 1
  37   22   39 1
  38   22   40 1
  39   22   41 1
  40   23   24 1
  41   23   42 1
  42   23   43 1
  43   24   25 1
  44   24   27 1
  45   24   44 1
  46   25   26 1
  47   25   45 1
  48   25   46 1
  49   26   47 1
  50   26   48 1
  51   27   49 1

#	End of record

