#	Name: ASD01810789
#	Creating user name:	WinNT
#	Creation time:	15. 06. 2019 19:25

#	Modifying user name:	WinNT
#	Modification time:	15. 06. 2019 19:25

#	Program:	/corina/corina34_cracker 3.40 0067  02.08.2006

@<TRIPOS>MOLECULE
ASD01810789
  24   22    0    0    0
SMALL
NO_CHARGES


@<TRIPOS>ATOM
   1 C1            -0.0184     1.5028     0.0103 C.2     
   2 C2             0.0021    -0.0041     0.0020 C.3     
   3 C3             1.4513    -0.4944    -0.0145 C.3     
   4 O4             1.0197     2.1211     0.0037 O.2     
   5 O5            -1.1898     2.1580     0.0194 O.3     
   6 N6             1.4712    -1.9632    -0.0225 N.3     
   7 C7             0.9097    -2.4905    -1.2734 C.3     
   8 C8             2.8310    -2.4725     0.1999 C.3     
   9 C9            -1.1335     3.6089     0.0270 C.3     
  10 H10           -0.4983    -0.3791     0.8948 H       
  11 H11           -0.5153    -0.3696    -0.8850 H       
  12 H12            1.9516    -0.1193    -0.9073 H       
  13 H13            1.9686    -0.1289     0.8726 H       
  14 H14            1.4977    -2.1283    -2.1167 H       
  15 H15            0.9365    -3.5799    -1.2529 H       
  16 H16           -0.1219    -2.1543    -1.3787 H       
  17 H17            3.1963    -2.1233     1.1657 H       
  18 H18            2.8171    -3.5624     0.1891 H       
  19 H19            3.4886    -2.1097    -0.5901 H       
  20 H20           -0.6017     3.9472     0.9164 H       
  21 H21           -0.6102     3.9569    -0.8636 H       
  22 H22           -2.1463     4.0118     0.0340 H       
  23 Cl23           8.4886     9.0118     6.1657 Cl      
  24 H24            8.4886    10.3818     6.1657 H       
@<TRIPOS>BOND
   1    1    2 1
   2    1    4 2
   3    1    5 1
   4    2    3 1
   5    2   10 1
   6    2   11 1
   7    3    6 1
   8    3   12 1
   9    3   13 1
  10    5    9 1
  11    6    7 1
  12    6    8 1
  13    7   14 1
  14    7   15 1
  15    7   16 1
  16    8   17 1
  17    8   18 1
  18    8   19 1
  19    9   20 1
  20    9   21 1
  21    9   22 1
  22   23   24 1

#	End of record

