#	Name: ASD02038024
#	Creating user name:	WinNT
#	Creation time:	15. 06. 2019 20:16

#	Modifying user name:	WinNT
#	Modification time:	15. 06. 2019 20:16

#	Program:	/corina/corina34_cracker 3.40 0067  02.08.2006

@<TRIPOS>MOLECULE
ASD02038024
  53   56    0    0    0
SMALL
NO_CHARGES


@<TRIPOS>ATOM
   1 C1            -0.0178     1.4608     0.0101 C.3     
   2 N2             0.0021    -0.0041     0.0020 N.am    
   3 N3            -1.1375    -2.0414     0.0020 N.am    
   4 C4            -1.1558    -0.6938     0.0094 C.2     
   5 C5            -1.0933    -5.4530    -0.2163 C.3     
   6 O6            -0.1928    -6.2152    -1.0227 O.3     
   7 C7            -0.0530    -7.5323    -0.7156 C.ar    
   8 C8             0.8053    -8.3303    -1.4584 C.ar    
   9 C9            -0.7642    -8.0764     0.3436 C.ar    
  10 C10           -0.6229    -9.4142     0.6565 C.ar    
  11 C11            0.2311   -10.2144    -0.0898 C.ar    
  12 C12            0.9471    -9.6675    -1.1469 C.ar    
  13 N13            0.3768   -11.5712     0.2240 N.am    
  14 C14            1.4406   -12.2638    -0.2225 C.2     
  15 C15            2.5034   -11.5931    -1.0505 C.3     
  16 C16            1.8728   -10.5387    -1.9556 C.3     
  17 O17           -2.2169    -0.1002     0.0227 O.2     
  18 O18            1.5444   -13.4421     0.0459 O.2     
  19 C19            2.0327     2.2279    -1.2026 C.ar    
  20 C20            1.3960     1.9824    -0.0006 C.ar    
  21 C21           -2.1436    -3.1141     0.0058 C.3     
  22 C22           -1.1179    -4.0047    -0.7090 C.3     
  23 C23           -0.1029    -3.0863    -0.0201 C.3     
  24 C24            3.3295     2.7065    -1.2131 C.ar    
  25 C25            3.9901     2.9395    -0.0202 C.ar    
  26 C26            3.3522     2.6935     1.1828 C.ar    
  27 C27            2.0556     2.2156     1.1920 C.ar    
  28 C28            4.0237     2.9737    -2.5237 C.3     
  29 Cl29           5.6189     3.5399    -0.0326 Cl      
  30 H30           -0.5450     1.8219    -0.8730 H       
  31 H31           -0.5280     1.8123     0.9069 H       
  32 H32            0.8486    -0.4776    -0.0086 H       
  33 H33           -2.0943    -5.8783    -0.2883 H       
  34 H34           -0.7616    -5.4781     0.8217 H       
  35 H35            1.3621    -7.9053    -2.2805 H       
  36 H36           -1.4285    -7.4535     0.9243 H       
  37 H37           -1.1764    -9.8375     1.4817 H       
  38 H38           -0.2935   -12.0148     0.7670 H       
  39 H39            3.2270   -11.1137    -0.3913 H       
  40 H40            3.0112   -12.3396    -1.6613 H       
  41 H41            1.3065   -11.0307    -2.7464 H       
  42 H42            2.6568    -9.9247    -2.3988 H       
  43 H43            1.5184     2.0417    -2.1339 H       
  44 H44           -2.4008    -3.4644     1.0054 H       
  45 H45           -3.0206    -2.8889    -0.6011 H       
  46 H46           -1.1322    -3.9194    -1.7955 H       
  47 H47            0.7533    -2.8379    -0.6473 H       
  48 H48            0.1868    -3.4276     0.9737 H       
  49 H49            3.8673     2.8756     2.1144 H       
  50 H50            1.5575     2.0239     2.1309 H       
  51 H51            3.8354     4.0022    -2.8315 H       
  52 H52            5.0963     2.8207    -2.4046 H       
  53 H53            3.6415     2.2915    -3.2830 H       
@<TRIPOS>BOND
   1    1    2 1
   2    1   20 1
   3    1   30 1
   4    1   31 1
   5    2    4 am
   6    2   32 1
   7    3    4 am
   8    3   21 1
   9    3   23 1
  10    4   17 2
  11    5    6 1
  12    5   22 1
  13    5   33 1
  14    5   34 1
  15    6    7 1
  16    7    8 ar
  17    7    9 ar
  18    8   12 ar
  19    8   35 1
  20    9   10 ar
  21    9   36 1
  22   10   11 ar
  23   10   37 1
  24   11   12 ar
  25   11   13 1
  26   12   16 1
  27   13   14 am
  28   13   38 1
  29   14   15 1
  30   14   18 2
  31   15   16 1
  32   15   39 1
  33   15   40 1
  34   16   41 1
  35   16   42 1
  36   19   20 ar
  37   19   24 ar
  38   19   43 1
  39   20   27 ar
  40   21   22 1
  41   21   44 1
  42   21   45 1
  43   22   23 1
  44   22   46 1
  45   23   47 1
  46   23   48 1
  47   24   25 ar
  48   24   28 1
  49   25   26 ar
  50   25   29 1
  51   26   27 ar
  52   26   49 1
  53   27   50 1
  54   28   51 1
  55   28   52 1
  56   28   53 1

#	End of record

