#	Name: ASD04590925
#	Creating user name:	WinNT
#	Creation time:	15. 06. 2019 20:51

#	Modifying user name:	WinNT
#	Modification time:	15. 06. 2019 20:51

#	Program:	/corina/corina34_cracker 3.40 0067  02.08.2006

@<TRIPOS>MOLECULE
ASD04590925
  65   70    0    0    0
SMALL
NO_CHARGES


@<TRIPOS>ATOM
   1 N1            -2.3782    -2.7058     0.0204 N.ar    
   2 C2            -1.2117    -2.0738     0.0040 C.ar    
   3 N3            -0.0573    -2.7202    -0.0182 N.ar    
   4 C4            -0.0259    -4.0495    -0.0245 C.ar    
   5 C5            -1.2486    -4.7504    -0.0070 C.ar    
   6 C6            -2.4370    -4.0273     0.0156 C.ar    
   7 N7             0.9980    -4.9638    -0.0457 N.pl3   
   8 C8             0.4950    -6.2534    -0.0428 C.ar    
   9 C9            -0.9092    -6.1791    -0.0189 C.ar    
  10 C10            1.0915    -7.5075    -0.0583 C.ar    
  11 N11            0.3552    -8.6000    -0.0507 N.ar    
  12 C12           -0.9655    -8.5647    -0.0283 C.ar    
  13 C13           -1.6436    -7.3644    -0.0113 C.ar    
  14 N14           -1.2019    -0.6887     0.0098 N.pl3   
  15 C15           -2.4013     0.0175    -0.0802 C.ar    
  16 N16           -3.5340    -0.6390    -0.2721 N.ar    
  17 C17           -4.6918    -0.0124    -0.3634 C.ar    
  18 C18           -4.7605     1.3688    -0.2608 C.ar    
  19 C19           -3.5874     2.0945    -0.0583 C.ar    
  20 C20           -2.3937     1.4030     0.0384 C.ar    
  21 N21           -5.9924     2.0264    -0.3597 N.3     
  22 C22            2.4226    -4.6227    -0.0686 C.3     
  23 C23           -6.2398     2.8610     0.8230 C.3     
  24 C24           -7.0849     1.0682    -0.5713 C.3     
  25 C25           -8.3902     1.8275    -0.8194 C.3     
  26 C26           -8.6944     2.7182     0.3884 C.3     
  27 C27           -7.5200     3.6738     0.6165 C.3     
  28 C28            2.7967    -3.8001     1.1817 C.3     
  29 C29            3.3020    -2.4475     0.6355 C.3     
  30 N30            2.6690    -2.3242    -0.7028 N.3     
  31 C31            2.7333    -3.6978    -1.2650 C.3     
  32 N32           -9.9154     3.4934     0.1316 N.3     
  33 C33          -10.3040     4.2712     1.3157 C.3     
  34 C34           -9.7493     4.3648    -1.0394 C.3     
  35 H35           -3.3898    -4.5356     0.0290 H       
  36 H36            2.1683    -7.5879    -0.0771 H       
  37 H37           -1.5222    -9.4902    -0.0234 H       
  38 H38           -2.7232    -7.3426     0.0072 H       
  39 H39           -0.3610    -0.2099     0.0765 H       
  40 H40           -5.5960    -0.5817    -0.5203 H       
  41 H41           -3.6110     3.1710     0.0253 H       
  42 H42           -1.4660     1.9332     0.1955 H       
  43 H43            3.0272    -5.5281    -0.1209 H       
  44 H44           -6.3517     2.2238     1.7002 H       
  45 H45           -5.3992     3.5388     0.9714 H       
  46 H46           -6.8580     0.4439    -1.4356 H       
  47 H47           -7.1928     0.4394     0.3124 H       
  48 H48           -8.2876     2.4461    -1.7110 H       
  49 H49           -9.2038     1.1161    -0.9610 H       
  50 H50           -8.8355     2.0969     1.2728 H       
  51 H51           -7.7118     4.2815     1.5008 H       
  52 H52           -7.4037     4.3214    -0.2525 H       
  53 H53            1.9204    -3.6502     1.8124 H       
  54 H54            3.5862    -4.3009     1.7420 H       
  55 H55            2.9817    -1.6321     1.2841 H       
  56 H56            4.3880    -2.4567     0.5430 H       
  57 H57            1.7133    -2.0104    -0.6233 H       
  58 H58            3.7303    -3.9027    -1.6549 H       
  59 H59            1.9848    -3.8238    -2.0473 H       
  60 H60           -9.5010     4.9603     1.5773 H       
  61 H61          -11.2107     4.8356     1.0982 H       
  62 H62          -10.4885     3.5948     2.1502 H       
  63 H63           -9.5306     3.7563    -1.9169 H       
  64 H64          -10.6678     4.9272    -1.2069 H       
  65 H65           -8.9262     5.0573    -0.8631 H       
@<TRIPOS>BOND
   1    1    2 ar
   2    1    6 ar
   3    2    3 ar
   4    2   14 1
   5    3    4 ar
   6    4    5 ar
   7    4    7 1
   8    5    6 ar
   9    5    9 1
  10    6   35 1
  11    7    8 1
  12    7   22 1
  13    8    9 ar
  14    8   10 ar
  15    9   13 ar
  16   10   11 ar
  17   10   36 1
  18   11   12 ar
  19   12   13 ar
  20   12   37 1
  21   13   38 1
  22   14   15 1
  23   14   39 1
  24   15   16 ar
  25   15   20 ar
  26   16   17 ar
  27   17   18 ar
  28   17   40 1
  29   18   19 ar
  30   18   21 1
  31   19   20 ar
  32   19   41 1
  33   20   42 1
  34   21   24 1
  35   21   23 1
  36   22   28 1
  37   22   31 1
  38   22   43 1
  39   23   27 1
  40   23   44 1
  41   23   45 1
  42   24   25 1
  43   24   46 1
  44   24   47 1
  45   25   26 1
  46   25   48 1
  47   25   49 1
  48   26   27 1
  49   26   32 1
  50   26   50 1
  51   27   51 1
  52   27   52 1
  53   28   29 1
  54   28   53 1
  55   28   54 1
  56   29   30 1
  57   29   55 1
  58   29   56 1
  59   30   31 1
  60   30   57 1
  61   31   58 1
  62   31   59 1
  63   32   33 1
  64   32   34 1
  65   33   60 1
  66   33   61 1
  67   33   62 1
  68   34   63 1
  69   34   64 1
  70   34   65 1

#	End of record

