#	Name: ASD05720225
#	Creating user name:	WinNT
#	Creation time:	15. 06. 2019 21:02

#	Modifying user name:	WinNT
#	Modification time:	15. 06. 2019 21:02

#	Program:	/corina/corina34_cracker 3.40 0067  02.08.2006

@<TRIPOS>MOLECULE
ASD05720225
  51   56    0    0    0
SMALL
NO_CHARGES


@<TRIPOS>ATOM
   1 C1            -0.0164     1.3564     0.0095 C.2     
   2 N2             0.0021    -0.0041     0.0020 N.am    
   3 C3             1.3668    -0.3817    -0.3269 C.3     
   4 C4             2.1436     0.8132     0.2984 C.3     
   5 N5             1.2296     1.9030     0.0005 N.am    
   6 C6             3.5223     0.8059    -0.3208 C.3     
   7 C7             4.2136    -0.4898     0.1404 C.3     
   8 C8             3.4060    -1.7295    -0.2290 C.3     
   9 C9             1.9546    -1.6374     0.2816 C.3     
  10 O10           -1.0386     2.0144     0.0181 O.2     
  11 C11           -1.9028    -2.9988     0.4550 C.2     
  12 N12           -0.8878    -2.1640     0.2120 N.2     
  13 C13           -1.0637    -0.8567     0.2568 C.2     
  14 C14           -2.3330    -0.3257     0.5636 C.2     
  15 C15           -3.3623    -1.1677     0.8100 C.2     
  16 N16           -3.1490    -2.5171     0.7562 N.pl3   
  17 N17           -3.9969    -3.6120     0.9579 N.2     
  18 C18           -3.3190    -4.7209     0.7923 C.2     
  19 C19           -1.9952    -4.3974     0.4688 C.2     
  20 C20           -0.8994    -5.3528     0.1948 C.ar    
  21 C21           -0.6507    -6.4030     1.0814 C.ar    
  22 C22            0.3682    -7.2921     0.8265 C.ar    
  23 C23            1.1540    -7.1441    -0.3192 C.ar    
  24 C24            0.9050    -6.0935    -1.2059 C.ar    
  25 C25           -0.1174    -5.2078    -0.9533 C.ar    
  26 C26            2.2484    -8.0983    -0.5928 C.2     
  27 N27            2.5822    -9.1239     0.1598 N.2     
  28 C28            3.6170    -9.7629    -0.3986 C.2     
  29 C29            3.9479    -9.1229    -1.5381 C.2     
  30 N30            3.0822    -8.0698    -1.6729 N.pl3   
  31 H31            1.5002    -0.3866    -1.4087 H       
  32 H32            2.2203     0.6799     1.3775 H       
  33 H33            1.4604     2.8297    -0.1697 H       
  34 H34            3.4422     0.8182    -1.4078 H       
  35 H35            4.0887     1.6720     0.0214 H       
  36 H36            5.1957    -0.5538    -0.3281 H       
  37 H37            4.3400    -0.4583     1.2226 H       
  38 H38            3.3951    -1.8365    -1.3136 H       
  39 H39            3.8817    -2.6071     0.2087 H       
  40 H40            1.9446    -1.5659     1.3692 H       
  41 H41            1.3881    -2.5105    -0.0422 H       
  42 H42           -2.4821     0.7433     0.6018 H       
  43 H43           -4.3415    -0.7786     1.0470 H       
  44 H44           -3.7168    -5.7206     0.8858 H       
  45 H45           -1.2579    -6.5171     1.9672 H       
  46 H46            0.5607    -8.1039     1.5122 H       
  47 H47            1.5126    -5.9787    -2.0914 H       
  48 H48           -0.3127    -4.3983    -1.6410 H       
  49 H49            4.1046   -10.6418    -0.0033 H       
  50 H50            4.7423    -9.3922    -2.2185 H       
  51 H51            3.0662    -7.4251    -2.3975 H       
@<TRIPOS>BOND
   1    1    2 am
   2    1    5 am
   3    1   10 2
   4    2    3 1
   5    2   13 1
   6    3    4 1
   7    3    9 1
   8    3   31 1
   9    4    5 1
  10    4    6 1
  11    4   32 1
  12    5   33 1
  13    6    7 1
  14    6   34 1
  15    6   35 1
  16    7    8 1
  17    7   36 1
  18    7   37 1
  19    8    9 1
  20    8   38 1
  21    8   39 1
  22    9   40 1
  23    9   41 1
  24   11   12 1
  25   11   16 1
  26   11   19 2
  27   12   13 2
  28   13   14 1
  29   14   15 2
  30   14   42 1
  31   15   16 1
  32   15   43 1
  33   16   17 1
  34   17   18 2
  35   18   19 1
  36   18   44 1
  37   19   20 1
  38   20   21 ar
  39   20   25 ar
  40   21   22 ar
  41   21   45 1
  42   22   23 ar
  43   22   46 1
  44   23   24 ar
  45   23   26 1
  46   24   25 ar
  47   24   47 1
  48   25   48 1
  49   26   27 2
  50   26   30 1
  51   27   28 1
  52   28   29 2
  53   28   49 1
  54   29   30 1
  55   29   50 1
  56   30   51 1

#	End of record

