#	Name: ASD08170291
#	Creating user name:	WinNT
#	Creation time:	15. 06. 2019 21:17

#	Modifying user name:	WinNT
#	Modification time:	15. 06. 2019 21:17

#	Program:	/corina/corina34_cracker 3.40 0067  02.08.2006

@<TRIPOS>MOLECULE
ASD08170291
  49   52    0    0    0
SMALL
NO_CHARGES


@<TRIPOS>ATOM
   1 N1            -0.0156     1.2978     0.0092 N.2     
   2 C2             0.0021    -0.0041     0.0020 C.2     
   3 S3             1.6908    -0.5170    -0.0169 S.3     
   4 C4             2.1706     1.1813    -0.0123 C.2     
   5 N5             1.0934     1.8980     0.0018 N.2     
   6 C6             7.9196     3.2712     4.2540 C.2     
   7 S7             7.7583     4.7243     5.2426 S.3     
   8 C8             8.5786     3.8790     6.5571 C.2     
   9 N9             8.8644     2.6797     6.1384 N.2     
  10 N10            8.5218     2.3729     4.9643 N.2     
  11 C11            9.8077     4.1897    10.0516 C.2     
  12 C12           10.4475     3.5341    11.0645 C.2     
  13 C13           -3.5201    -1.1923     0.0310 C.2     
  14 C14           -4.8256    -0.7915     0.0459 C.2     
  15 O15            9.5109     5.4336    10.4815 O.3     
  16 C16            9.9405     5.5829    11.7413 C.2     
  17 C17           10.5305     4.4339    12.1385 C.2     
  18 C18           -5.6059    -1.9581     0.0478 C.2     
  19 C19           -4.7536    -3.0067     0.0341 C.2     
  20 O20           -3.4978    -2.5412     0.0181 O.3     
  21 N21           -1.1084    -0.8391     0.0088 N.am    
  22 C22           -2.3484    -0.3113     0.0238 C.2     
  23 O23           -2.4955     0.8969     0.0313 O.2     
  24 N24            8.8679     4.3998     7.8124 N.am    
  25 C25            9.5024     3.6402     8.7272 C.2     
  26 O26            9.8220     2.4981     8.4538 O.2     
  27 C27            3.5840     1.7040    -0.0220 C.3     
  28 C28            4.0750     1.8735     1.4171 C.3     
  29 C29            5.5100     2.4042     1.4072 C.3     
  30 C30            6.0010     2.5736     2.8464 C.3     
  31 C31            7.4360     3.1043     2.8365 C.3     
  32 H32           10.8174     2.5196    11.0434 H       
  33 H33           -5.1875     0.2261     0.0549 H       
  34 H34            9.8385     6.4767    12.3388 H       
  35 H35           10.9760     4.2417    13.1034 H       
  36 H36           -6.6847    -2.0084     0.0588 H       
  37 H37           -5.0382    -4.0486     0.0320 H       
  38 H38           -0.9912    -1.8020     0.0028 H       
  39 H39            8.6132     5.3100     8.0303 H       
  40 H40            4.2289     0.9980    -0.5452 H       
  41 H41            3.6116     2.6674    -0.5312 H       
  42 H42            3.4301     2.5795     1.9403 H       
  43 H43            4.0474     0.9101     1.9262 H       
  44 H44            6.1549     1.6981     0.8841 H       
  45 H45            5.5376     3.3676     0.8981 H       
  46 H46            5.3561     3.2797     3.3695 H       
  47 H47            5.9734     1.6102     3.3555 H       
  48 H48            7.4636     4.0677     2.3274 H       
  49 H49            8.0809     2.3983     2.3133 H       
@<TRIPOS>BOND
   1    1    2 2
   2    1    5 1
   3    2    3 1
   4    2   21 1
   5    3    4 1
   6    4    5 2
   7    4   27 1
   8    6    7 1
   9    6   31 1
  10    6   10 2
  11    7    8 1
  12    8    9 2
  13    8   24 1
  14    9   10 1
  15   11   15 1
  16   11   25 1
  17   11   12 2
  18   12   17 1
  19   12   32 1
  20   13   14 2
  21   13   22 1
  22   13   20 1
  23   14   18 1
  24   14   33 1
  25   15   16 1
  26   16   17 2
  27   16   34 1
  28   17   35 1
  29   18   19 2
  30   18   36 1
  31   19   20 1
  32   19   37 1
  33   21   22 am
  34   21   38 1
  35   22   23 2
  36   24   25 am
  37   24   39 1
  38   25   26 2
  39   27   28 1
  40   27   40 1
  41   27   41 1
  42   28   29 1
  43   28   42 1
  44   28   43 1
  45   29   30 1
  46   29   44 1
  47   29   45 1
  48   30   31 1
  49   30   46 1
  50   30   47 1
  51   31   48 1
  52   31   49 1

#	End of record

