#	Name: ASD02039146
#	Creating user name:	WinNT
#	Creation time:	15. 06. 2019 20:17

#	Modifying user name:	WinNT
#	Modification time:	15. 06. 2019 20:17

#	Program:	/corina/corina34_cracker 3.40 0067  02.08.2006

@<TRIPOS>MOLECULE
ASD02039146
  39   42    0    0    0
SMALL
NO_CHARGES


@<TRIPOS>ATOM
   1 N1            -0.0009     1.2804     0.2550 N.2     
   2 C2             0.0074    -0.0198     0.1288 C.2     
   3 N3             1.2988    -0.4141     0.1374 N.2     
   4 C4             2.0014     0.6840     0.2699 C.2     
   5 O5             1.1345     1.6990     0.3371 O.3     
   6 C6             3.5037     0.7836     0.3348 C.3     
   7 O7             4.0278     0.9452    -0.9848 O.3     
   8 C8             5.3780     1.0514    -1.1040 C.ar    
   9 N9            -1.1052    -0.8435     0.0088 N.pl3   
  10 C10           -2.3896    -0.3053     0.1297 C.ar    
  11 C11           -3.4561    -0.8920    -0.5401 C.ar    
  12 C12           -4.7239    -0.3583    -0.4190 C.ar    
  13 C13           -4.9333     0.7593     0.3681 C.ar    
  14 C14           -3.8736     1.3465     1.0369 C.ar    
  15 C15           -2.6031     0.8135     0.9241 C.ar    
  16 C16            6.1801     1.0004     0.0333 C.ar    
  17 C17            7.5499     1.1059    -0.0684 C.ar    
  18 C18            8.1437     1.2652    -1.3158 C.ar    
  19 C19            7.3366     1.3173    -2.4680 C.ar    
  20 C20            5.9475     1.2038    -2.3524 C.ar    
  21 N21            9.5141     1.3737    -1.4386 N.am    
  22 C22           10.0905     1.5287    -2.6432 C.2     
  23 C23            9.3260     1.5874    -3.8281 C.2     
  24 C24            7.9749     1.4863    -3.7749 C.2     
  25 O25           11.3038     1.6213    -2.7139 O.2     
  26 Cl26          -4.1413     2.7493     2.0239 Cl      
  27 H27            3.7850     1.6418     0.9450 H       
  28 H28            3.9093    -0.1259     0.7779 H       
  29 H29           -0.9906    -1.7920    -0.1589 H       
  30 H30           -3.2936    -1.7646    -1.1554 H       
  31 H31           -5.5529    -0.8141    -0.9400 H       
  32 H32           -5.9259     1.1748     0.4608 H       
  33 H33           -1.7762     1.2716     1.4464 H       
  34 H34            5.7239     0.8771     1.0044 H       
  35 H35            8.1623     1.0653     0.8202 H       
  36 H36            5.3238     1.2428    -3.2332 H       
  37 H37           10.0695     1.3381    -0.6441 H       
  38 H38            9.8190     1.7129    -4.7807 H       
  39 H39            7.3825     1.5295    -4.6768 H       
@<TRIPOS>BOND
   1    1    2 2
   2    1    5 1
   3    2    3 1
   4    2    9 1
   5    3    4 2
   6    4    5 1
   7    4    6 1
   8    6    7 1
   9    6   27 1
  10    6   28 1
  11    7    8 1
  12    8   16 ar
  13    8   20 ar
  14    9   10 1
  15    9   29 1
  16   10   11 ar
  17   10   15 ar
  18   11   12 ar
  19   11   30 1
  20   12   13 ar
  21   12   31 1
  22   13   14 ar
  23   13   32 1
  24   14   15 ar
  25   14   26 1
  26   15   33 1
  27   16   17 ar
  28   16   34 1
  29   17   18 ar
  30   17   35 1
  31   18   19 ar
  32   18   21 1
  33   19   20 ar
  34   19   24 1
  35   20   36 1
  36   21   22 am
  37   21   37 1
  38   22   23 1
  39   22   25 2
  40   23   24 2
  41   23   38 1
  42   24   39 1

#	End of record

