#	Name: ASD09740640
#	Creating user name:	WinNT
#	Creation time:	15. 06. 2019 21:23

#	Modifying user name:	WinNT
#	Modification time:	15. 06. 2019 21:23

#	Program:	/corina/corina34_cracker 3.40 0067  02.08.2006

@<TRIPOS>MOLECULE
ASD09740640
  59   63    0    0    0
SMALL
NO_CHARGES


@<TRIPOS>ATOM
   1 N1            -0.0144     1.2567     0.0117 N.2     
   2 N2             0.0028    -0.0042     0.0020 N.2     
   3 C3             1.1342     1.8785    -0.0040 C.2     
   4 S4             2.4092     0.6589    -0.0358 S.3     
   5 C5             1.1671    -0.5945    -0.0231 C.2     
   6 C6             1.3310     3.3433     0.0034 C.ar    
   7 C7             0.2286     4.1939     0.0299 C.ar    
   8 C8             2.6238     3.8750    -0.0103 C.ar    
   9 C9             2.8132     5.2402    -0.0035 C.ar    
  10 C10            1.7222     6.0971     0.0171 C.ar    
  11 C11            0.4202     5.5746     0.0368 C.ar    
  12 O12            1.9144     7.4400     0.0242 O.3     
  13 C13            3.2625     7.9019     0.1307 C.3     
  14 C14            3.9009     7.9372    -1.2593 C.3     
  15 C15            3.2737     9.3083     0.7329 C.3     
  16 C16           -0.7079     6.4565     0.0576 C.1     
  17 N17           -1.6027     7.1561     0.0740 N.1     
  18 C18            1.4030    -2.0537    -0.0378 C.ar    
  19 C19            0.3204    -2.9377    -0.0252 C.ar    
  20 C20            0.5474    -4.2986    -0.0395 C.ar    
  21 C21            1.8458    -4.7831    -0.0660 C.ar    
  22 C22            2.9200    -3.9128    -0.0783 C.ar    
  23 C23            2.7062    -2.5501    -0.0700 C.ar    
  24 C24           -1.1681    -2.6657     0.0033 C.3     
  25 C25           -1.8287    -3.9902    -0.4347 C.3     
  26 C26           -0.7736    -5.0381    -0.0212 C.3     
  27 N27           -0.7509    -6.1433    -0.9826 N.am    
  28 C28           -0.3160    -7.3603    -0.6002 C.2     
  29 O29            0.0574    -7.5409     0.5427 O.2     
  30 N30           -0.2951    -8.3770    -1.4846 N.am    
  31 C31            0.0924    -9.7955    -1.4585 C.3     
  32 C32            0.3859    -9.6870    -2.9612 C.3     
  33 C33           -0.6558    -8.5579    -2.8989 C.3     
  34 O34            1.7114    -9.2508    -3.2694 O.3     
  35 H35           -0.7710     3.7853     0.0447 H       
  36 H36            3.4773     3.2135    -0.0260 H       
  37 H37            3.8146     5.6444    -0.0138 H       
  38 H38            3.8281     7.2270     0.7732 H       
  39 H39            3.3353     8.6120    -1.9018 H       
  40 H40            4.9292     8.2895    -1.1781 H       
  41 H41            3.8929     6.9352    -1.6884 H       
  42 H42            2.8189     9.2831     1.7232 H       
  43 H43            4.3020     9.6606     0.8142 H       
  44 H44            2.7082     9.9832     0.0904 H       
  45 H45            2.0198    -5.8489    -0.0769 H       
  46 H46            3.9278    -4.3004    -0.0989 H       
  47 H47            3.5451    -1.8699    -0.0796 H       
  48 H48           -1.4850    -2.4004     1.0119 H       
  49 H49           -1.4204    -1.8681    -0.6955 H       
  50 H50           -2.7651    -4.1515     0.0994 H       
  51 H51           -1.9886    -4.0057    -1.5128 H       
  52 H52           -0.9841    -5.4117     0.9809 H       
  53 H53           -1.0487    -5.9991    -1.8944 H       
  54 H54            0.9793    -9.9921    -0.8561 H       
  55 H55           -0.7338   -10.4669    -1.2249 H       
  56 H56            0.0690   -10.5531    -3.5421 H       
  57 H57           -1.6790    -8.9025    -3.0487 H       
  58 H58           -0.4039    -7.6999    -3.5222 H       
  59 H59            1.8931    -9.1836    -4.2168 H       
@<TRIPOS>BOND
   1    1    2 1
   2    1    3 2
   3    2    5 2
   4    3    4 1
   5    3    6 1
   6    4    5 1
   7    5   18 1
   8    6    7 ar
   9    6    8 ar
  10    7   11 ar
  11    7   35 1
  12    8    9 ar
  13    8   36 1
  14    9   10 ar
  15    9   37 1
  16   10   11 ar
  17   10   12 1
  18   11   16 1
  19   12   13 1
  20   13   14 1
  21   13   15 1
  22   13   38 1
  23   14   39 1
  24   14   40 1
  25   14   41 1
  26   15   42 1
  27   15   43 1
  28   15   44 1
  29   16   17 3
  30   18   19 ar
  31   18   23 ar
  32   19   20 ar
  33   19   24 1
  34   20   21 ar
  35   20   26 1
  36   21   22 ar
  37   21   45 1
  38   22   23 ar
  39   22   46 1
  40   23   47 1
  41   24   25 1
  42   24   48 1
  43   24   49 1
  44   25   26 1
  45   25   50 1
  46   25   51 1
  47   26   27 1
  48   26   52 1
  49   27   28 am
  50   27   53 1
  51   28   29 2
  52   28   30 am
  53   30   31 1
  54   30   33 1
  55   31   32 1
  56   31   54 1
  57   31   55 1
  58   32   33 1
  59   32   34 1
  60   32   56 1
  61   33   57 1
  62   33   58 1
  63   34   59 1

#	End of record

