#	Name: ASD01917045
#	Creating user name:	WinNT
#	Creation time:	15. 06. 2019 20:08

#	Modifying user name:	WinNT
#	Modification time:	15. 06. 2019 20:08

#	Program:	/corina/corina34_cracker 3.40 0067  02.08.2006

@<TRIPOS>MOLECULE
ASD01917045
  41   43    0    0    0
SMALL
NO_CHARGES


@<TRIPOS>ATOM
   1 C1             0.0221     1.3589     0.0248 C.ar    
   2 C2             0.0107    -0.0268    -0.1359 C.ar    
   3 C3            -1.2637    -0.7742    -0.0503 C.2     
   4 N4            -2.4693    -0.2671    -0.1985 N.2     
   5 C5            -3.3848    -1.2319    -0.0571 C.2     
   6 N6            -2.7716    -2.3708     0.1841 N.2     
   7 N7            -1.3937    -2.0998     0.1883 N.pl3   
   8 C8            -0.3113    -3.0608     0.4143 C.3     
   9 C9             0.0859    -3.6877    -0.8974 C.2     
  10 O10            1.0654    -4.6047    -0.9337 O.3     
  11 O11           -0.4774    -3.3648    -1.9164 O.2     
  12 C12            1.3951    -5.1661    -2.2315 C.3     
  13 C13           -4.8539    -1.0477    -0.1561 C.ar    
  14 C14           -5.3832     0.2148    -0.4175 C.ar    
  15 C15           -5.7067    -2.1379     0.0062 C.ar    
  16 C16           -7.0716    -1.9638    -0.0868 C.ar    
  17 C17           -7.5962    -0.7040    -0.3420 C.ar    
  18 C18           -6.7489     0.3829    -0.5094 C.ar    
  19 O19           -8.9413    -0.5355    -0.4336 O.3     
  20 C20            1.2055    -0.7049    -0.3779 C.ar    
  21 C21            2.3903    -0.0023    -0.4571 C.ar    
  22 C22            2.3951     1.3718    -0.2969 C.ar    
  23 C23            1.2136     2.0501    -0.0566 C.ar    
  24 C24           -9.4130     0.7872    -0.6979 C.3     
  25 H25           -0.9002     1.8900     0.2080 H       
  26 H26            0.5473    -2.5462     0.8458 H       
  27 H27           -0.6518    -3.8371     1.0996 H       
  28 H28            1.7157    -4.3684    -2.9016 H       
  29 H29            2.2004    -5.8920    -2.1194 H       
  30 H30            0.5167    -5.6592    -2.6478 H       
  31 H31           -4.7245     1.0608    -0.5475 H       
  32 H32           -5.2991    -3.1182     0.2044 H       
  33 H33           -7.7330    -2.8083     0.0386 H       
  34 H34           -7.1598     1.3618    -0.7078 H       
  35 H35            1.2031    -1.7777    -0.5028 H       
  36 H36            3.3160    -0.5263    -0.6441 H       
  37 H37            3.3251     1.9173    -0.3597 H       
  38 H38            1.2238     3.1228     0.0680 H       
  39 H39           -9.0878     1.4551     0.0997 H       
  40 H40           -9.0090     1.1337    -1.6492 H       
  41 H41          -10.5019     0.7819    -0.7460 H       
@<TRIPOS>BOND
   1    1    2 ar
   2    1   23 ar
   3    1   25 1
   4    2    3 1
   5    2   20 ar
   6    3    4 2
   7    3    7 1
   8    4    5 1
   9    5    6 2
  10    5   13 1
  11    6    7 1
  12    7    8 1
  13    8    9 1
  14    8   26 1
  15    8   27 1
  16    9   10 1
  17    9   11 2
  18   10   12 1
  19   12   28 1
  20   12   29 1
  21   12   30 1
  22   13   14 ar
  23   13   15 ar
  24   14   18 ar
  25   14   31 1
  26   15   16 ar
  27   15   32 1
  28   16   17 ar
  29   16   33 1
  30   17   18 ar
  31   17   19 1
  32   18   34 1
  33   19   24 1
  34   20   21 ar
  35   20   35 1
  36   21   22 ar
  37   21   36 1
  38   22   23 ar
  39   22   37 1
  40   23   38 1
  41   24   39 1
  42   24   40 1
  43   24   41 1

#	End of record

