#	Name: ASD05490223
#	Creating user name:	WinNT
#	Creation time:	15. 06. 2019 21:01

#	Modifying user name:	WinNT
#	Modification time:	15. 06. 2019 21:01

#	Program:	/corina/corina34_cracker 3.40 0067  02.08.2006

@<TRIPOS>MOLECULE
ASD05490223
  68   70    0    0    0
SMALL
NO_CHARGES


@<TRIPOS>ATOM
   1 N1             0.5947     1.5861     0.2478 N.ar    
   2 C2             0.4611     0.2951     0.5113 C.ar    
   3 C3             1.5350    -0.5698     0.3828 C.ar    
   4 C4             2.7677    -0.0662    -0.0295 C.ar    
   5 C5             2.8708     1.2970    -0.2978 C.ar    
   6 C6             1.7512     2.1013    -0.1466 C.ar    
   7 N7             3.8697    -0.9054    -0.1694 N.3     
   8 C8             4.2583    -1.4840     1.1237 C.3     
   9 C9             3.6073    -1.9583    -1.1596 C.3     
  10 C10            3.6680    -1.3705    -2.5459 C.ar    
  11 C11            4.8801    -1.2753    -3.2038 C.ar    
  12 C12            4.9358    -0.7360    -4.4754 C.ar    
  13 C13            3.7795    -0.2924    -5.0893 C.ar    
  14 C14            2.5673    -0.3884    -4.4318 C.ar    
  15 C15            2.5110    -0.9316    -3.1619 C.ar    
  16 C16            3.4815    -0.2105    -8.8201 C.3     
  17 N17            3.6657    -0.7713    -7.4689 N.3     
  18 C18            2.4930    -1.6109    -7.1438 C.3     
  19 C19            1.9166    -2.0345    -8.5179 C.3     
  20 C20            2.1413    -0.7516    -9.3608 C.3     
  21 N21            1.8423     3.4631    -0.4115 N.pl3   
  22 O22           -0.7425    -0.1859     0.9124 O.3     
  23 C23           -1.8118     0.7551     1.0267 C.3     
  24 C24           -3.0796     0.0330     1.4873 C.3     
  25 O25           -2.8836    -0.4786     2.8071 O.3     
  26 C26           -4.0145    -1.1750     3.3345 C.3     
  27 C27            3.8404     0.2964    -6.4752 C.3     
  28 N28            4.1586     1.8793    -0.7379 N.pl3   
  29 O29            4.4251     1.9409    -1.9248 O.2     
  30 O30            4.9516     2.2969     0.0868 O.2     
  31 C31            5.6374    -2.0814     1.0127 C.2     
  32 O32            6.2699    -1.9552    -0.0090 O.2     
  33 O33            6.1630    -2.7537     2.0487 O.3     
  34 C34            7.9232    -4.0279     3.1481 C.3     
  35 C35            7.4957    -3.3019     1.8709 C.3     
  36 H36            1.4190    -1.6214     0.5997 H       
  37 H37            4.2606    -0.7038     1.8849 H       
  38 H38            3.5470    -2.2615     1.4024 H       
  39 H39            4.3585    -2.7423    -1.0642 H       
  40 H40            2.6173    -2.3807    -0.9872 H       
  41 H41            5.7835    -1.6219    -2.7241 H       
  42 H42            5.8829    -0.6610    -4.9891 H       
  43 H43            1.6639    -0.0415    -4.9113 H       
  44 H44            1.5639    -1.0066    -2.6482 H       
  45 H45            3.4484     0.8777    -8.7686 H       
  46 H46            4.2983    -0.5286    -9.4680 H       
  47 H47            2.8006    -2.4882    -6.5746 H       
  48 H48            1.7564    -1.0339    -6.5849 H       
  49 H49            2.4723    -2.8759    -8.9318 H       
  50 H50            0.8552    -2.2698    -8.4402 H       
  51 H51            1.3391    -0.0335    -9.1910 H       
  52 H52            2.2234    -0.9958   -10.4199 H       
  53 H53            2.6856     3.8456    -0.7002 H       
  54 H54            1.0626     4.0306    -0.3075 H       
  55 H55           -1.5453     1.5213     1.7546 H       
  56 H56           -1.9909     1.2211     0.0577 H       
  57 H57           -3.9157     0.7323     1.4891 H       
  58 H58           -3.2963    -0.7906     0.8069 H       
  59 H59           -4.8700    -0.5007     3.3747 H       
  60 H60           -4.2505    -2.0235     2.6924 H       
  61 H61           -3.7856    -1.5317     4.3387 H       
  62 H62            3.0469     1.0345    -6.5916 H       
  63 H63            4.8077     0.7764    -6.6239 H       
  64 H64            7.9276    -3.3252     3.9813 H       
  65 H65            7.2228    -4.8363     3.3583 H       
  66 H66            8.9236    -4.4394     3.0146 H       
  67 H67            7.4913    -4.0047     1.0377 H       
  68 H68            8.1961    -2.4936     1.6607 H       
@<TRIPOS>BOND
   1    1    2 ar
   2    1    6 ar
   3    2    3 ar
   4    2   22 1
   5    3    4 ar
   6    3   36 1
   7    4    5 ar
   8    4    7 1
   9    5    6 ar
  10    5   28 1
  11    6   21 1
  12    7    8 1
  13    7    9 1
  14    8   31 1
  15    8   37 1
  16    8   38 1
  17    9   10 1
  18    9   39 1
  19    9   40 1
  20   10   11 ar
  21   10   15 ar
  22   11   12 ar
  23   11   41 1
  24   12   13 ar
  25   12   42 1
  26   13   14 ar
  27   13   27 1
  28   14   15 ar
  29   14   43 1
  30   15   44 1
  31   16   17 1
  32   16   20 1
  33   16   45 1
  34   16   46 1
  35   17   18 1
  36   17   27 1
  37   18   19 1
  38   18   47 1
  39   18   48 1
  40   19   20 1
  41   19   49 1
  42   19   50 1
  43   20   51 1
  44   20   52 1
  45   21   53 1
  46   21   54 1
  47   22   23 1
  48   23   24 1
  49   23   55 1
  50   23   56 1
  51   24   25 1
  52   24   57 1
  53   24   58 1
  54   25   26 1
  55   26   59 1
  56   26   60 1
  57   26   61 1
  58   27   62 1
  59   27   63 1
  60   28   29 2
  61   28   30 2
  62   31   32 2
  63   31   33 1
  64   33   35 1
  65   34   35 1
  66   34   64 1
  67   34   65 1
  68   34   66 1
  69   35   67 1
  70   35   68 1

#	End of record

