#	Name: ASD01028782
#	Creating user name:	WinNT
#	Creation time:	15. 06. 2019 18:58

#	Modifying user name:	WinNT
#	Modification time:	15. 06. 2019 18:58

#	Program:	/corina/corina34_cracker 3.40 0067  02.08.2006

@<TRIPOS>MOLECULE
ASD01028782
  27   28    0    0    0
SMALL
NO_CHARGES


@<TRIPOS>ATOM
   1 C1            -2.1960     1.4696     0.5991 C.2     
   2 C2            -2.1778    -0.0373     0.5858 C.3     
   3 O3            -3.1093     2.0603     1.1357 O.2     
   4 N4            -1.1946     2.1607     0.0195 N.am    
   5 O5            -3.3341    -0.5336     1.2631 O.3     
   6 C6            -3.4141    -1.9596     1.3077 C.3     
   7 N7            -0.1353     5.6323    -0.0316 N.ar    
   8 C8            -0.1001     4.3254     0.0433 C.ar    
   9 C9            -1.2647     3.5544    -0.0652 C.ar    
  10 C10           -2.4823     4.1773    -0.2565 C.ar    
  11 C11           -2.5030     5.5825    -0.3359 C.ar    
  12 N12           -3.6479     6.2456    -0.5205 N.ar    
  13 C13           -3.6733     7.5550    -0.5956 C.ar    
  14 C14           -2.5121     8.3149    -0.4873 C.ar    
  15 C15           -1.3064     7.6983    -0.2979 C.ar    
  16 C16           -1.2821     6.2909    -0.2167 C.ar    
  17 Cl17           0.1558     8.6239    -0.1610 Cl      
  18 H18           -2.1804    -0.3916    -0.4449 H       
  19 H19           -1.2800    -0.3942     1.0905 H       
  20 H20           -0.4252     1.6911    -0.3390 H       
  21 H21           -2.5420    -2.3565     1.8273 H       
  22 H22           -4.3191    -2.2563     1.8379 H       
  23 H23           -3.4424    -2.3539     0.2919 H       
  24 H24            0.8482     3.8308     0.1932 H       
  25 H25           -3.3926     3.6027    -0.3432 H       
  26 H26           -4.6184     8.0557    -0.7455 H       
  27 H27           -2.5634     9.3916    -0.5534 H       
@<TRIPOS>BOND
   1    1    2 1
   2    1    3 2
   3    1    4 am
   4    2    5 1
   5    2   18 1
   6    2   19 1
   7    4    9 1
   8    4   20 1
   9    5    6 1
  10    6   21 1
  11    6   22 1
  12    6   23 1
  13    7    8 ar
  14    7   16 ar
  15    8    9 ar
  16    8   24 1
  17    9   10 ar
  18   10   11 ar
  19   10   25 1
  20   11   12 ar
  21   11   16 ar
  22   12   13 ar
  23   13   14 ar
  24   13   26 1
  25   14   15 ar
  26   14   27 1
  27   15   16 ar
  28   15   17 1

#	End of record

