#	Name: ASD04550015
#	Creating user name:	WinNT
#	Creation time:	15. 06. 2019 20:49

#	Modifying user name:	WinNT
#	Modification time:	15. 06. 2019 20:49

#	Program:	/corina/corina34_cracker 3.40 0067  02.08.2006

@<TRIPOS>MOLECULE
ASD04550015
  36   36    0    0    0
SMALL
NO_CHARGES


@<TRIPOS>ATOM
   1 C1            -0.0167     1.3779     0.0096 C.ar    
   2 C2             0.0021    -0.0041     0.0020 C.ar    
   3 C3            -1.1857    -0.7116     0.0095 C.ar    
   4 C4            -2.3919    -0.0369     0.0251 C.ar    
   5 C5            -2.4106     1.3455     0.0336 C.ar    
   6 C6            -1.2232     2.0528     0.0305 C.ar    
   7 C7            -3.7258     2.0812     0.0501 C.3     
   8 C8            -4.5344     1.7082    -1.1941 C.3     
   9 C9             1.2780     2.1491     0.0014 C.3     
  10 C10            2.0972     1.7837     1.2409 C.3     
  11 C11            2.0733     1.7971    -1.2574 C.3     
  12 C12            1.3094     2.2756    -2.4937 C.3     
  13 C13            3.3526     2.6564     1.2981 C.3     
  14 C14           -4.4997     1.6990     1.2854 C.2     
  15 O15           -4.0314     0.9101     2.0717 O.2     
  16 O16           -5.7093     2.2349     1.5121 O.3     
  17 H17            0.9446    -0.5313    -0.0101 H       
  18 H18           -1.1711    -1.7915     0.0029 H       
  19 H19           -3.3198    -0.5895     0.0302 H       
  20 H20           -1.2378     3.1327     0.0372 H       
  21 H21           -3.5412     3.1554     0.0549 H       
  22 H22           -4.7190     0.6340    -1.1989 H       
  23 H23           -5.4856     2.2403    -1.1822 H       
  24 H24           -3.9746     1.9847    -2.0876 H       
  25 H25            1.0644     3.2179     0.0092 H       
  26 H26            1.4971     1.9513     2.1353 H       
  27 H27            2.3864     0.7341     1.1889 H       
  28 H28            3.0470     2.2856    -1.2204 H       
  29 H29            2.2104     0.7171    -1.3104 H       
  30 H30            1.8759     2.0248    -3.3905 H       
  31 H31            0.3356     1.7871    -2.5307 H       
  32 H32            1.1723     3.3556    -2.4407 H       
  33 H33            3.9526     2.4888     0.4037 H       
  34 H34            3.0633     3.7061     1.3501 H       
  35 H35            3.9361     2.3961     2.1811 H       
  36 H36           -6.1676     1.9592     2.3178 H       
@<TRIPOS>BOND
   1    1    2 ar
   2    1    9 1
   3    1    6 ar
   4    2    3 ar
   5    2   17 1
   6    3    4 ar
   7    3   18 1
   8    4    5 ar
   9    4   19 1
  10    5    6 ar
  11    5    7 1
  12    6   20 1
  13    7    8 1
  14    7   14 1
  15    7   21 1
  16    8   22 1
  17    8   23 1
  18    8   24 1
  19    9   10 1
  20    9   11 1
  21    9   25 1
  22   10   13 1
  23   10   26 1
  24   10   27 1
  25   11   12 1
  26   11   28 1
  27   11   29 1
  28   12   30 1
  29   12   31 1
  30   12   32 1
  31   13   33 1
  32   13   34 1
  33   13   35 1
  34   14   15 2
  35   14   16 1
  36   16   36 1

#	End of record

