#	Name: ASD00069234
#	Creating user name:	WinNT
#	Creation time:	15. 06. 2019 18:29

#	Modifying user name:	WinNT
#	Modification time:	15. 06. 2019 18:29

#	Program:	/corina/corina34_cracker 3.40 0067  02.08.2006

@<TRIPOS>MOLECULE
ASD00069234
  40   40    0    0    0
SMALL
NO_CHARGES


@<TRIPOS>ATOM
   1 C1            -0.0158     1.3127     0.0093 C.2     
   2 N2             0.0021    -0.0041     0.0020 N.2     
   3 C3             1.2653    -0.4222    -0.0123 C.2     
   4 C4             2.0755     0.6664    -0.0142 C.2     
   5 N5             1.2762     1.7592    -0.0007 N.pl3   
   6 C6            -1.2207     2.1590     0.0198 C.2     
   7 O7            -1.1130     3.3695     0.0254 O.2     
   8 O8            -2.4433     1.5910     0.0232 O.3     
   9 C9             1.7138     3.1573     0.0017 C.3     
  10 O10            3.1418     3.2095    -0.0113 O.3     
  11 C11            3.6749     4.5353    -0.0101 C.3     
  12 C12            5.2035     4.4704    -0.0246 C.3     
  13 Si13           5.8985     6.1989    -0.0231 Si      
  14 C14            5.3296     7.0956     1.5075 C.3     
  15 C15            7.7598     6.1197    -0.0408 C.3     
  16 C16            5.3013     7.1097    -1.5346 C.3     
  17 Br17           1.8343    -2.2256    -0.0268 Br      
  18 C18           -3.5862     2.4865     0.0337 C.3     
  19 C19           -4.8773     1.6656     0.0361 C.3     
  20 H20            3.1555     0.6620    -0.0240 H       
  21 H21            1.3237     3.6616    -0.8824 H       
  22 H22            1.3402     3.6534     0.8975 H       
  23 H23            3.3255     5.0682    -0.8945 H       
  24 H24            3.3420     5.0600     0.8854 H       
  25 H25            5.5529     3.9375     0.8597 H       
  26 H26            5.5363     3.9457    -0.9202 H       
  27 H27            5.6790     6.5627     2.3919 H       
  28 H28            5.7362     8.1069     1.5084 H       
  29 H29            4.2406     7.1419     1.5179 H       
  30 H30            8.0926     5.5951    -0.9363 H       
  31 H31            8.1664     7.1310    -0.0399 H       
  32 H32            8.1092     5.5868     0.8436 H       
  33 H33            4.2123     7.1560    -1.5242 H       
  34 H34            5.7080     8.1210    -1.5337 H       
  35 H35            5.6342     6.5850    -2.4301 H       
  36 H36           -3.5507     3.1105     0.9266 H       
  37 H37           -3.5598     3.1196    -0.8533 H       
  38 H38           -4.9129     1.0416    -0.8568 H       
  39 H39           -4.9037     1.0325     0.9231 H       
  40 H40           -5.7353     2.3379     0.0440 H       
@<TRIPOS>BOND
   1    1    2 2
   2    1    5 1
   3    1    6 1
   4    2    3 1
   5    3    4 2
   6    3   17 1
   7    4    5 1
   8    4   20 1
   9    5    9 1
  10    6    7 2
  11    6    8 1
  12    8   18 1
  13    9   10 1
  14    9   21 1
  15    9   22 1
  16   10   11 1
  17   11   12 1
  18   11   23 1
  19   11   24 1
  20   12   13 1
  21   12   25 1
  22   12   26 1
  23   13   14 1
  24   13   15 1
  25   13   16 1
  26   14   27 1
  27   14   28 1
  28   14   29 1
  29   15   30 1
  30   15   31 1
  31   15   32 1
  32   16   33 1
  33   16   34 1
  34   16   35 1
  35   18   19 1
  36   18   36 1
  37   18   37 1
  38   19   38 1
  39   19   39 1
  40   19   40 1

#	End of record

