#	Name: ASD00990071
#	Creating user name:	WinNT
#	Creation time:	15. 06. 2019 18:54

#	Modifying user name:	WinNT
#	Modification time:	15. 06. 2019 18:54

#	Program:	/corina/corina34_cracker 3.40 0067  02.08.2006

@<TRIPOS>MOLECULE
ASD00990071
  53   54    0    0    0
SMALL
NO_CHARGES


@<TRIPOS>ATOM
   1 C1             0.0619     1.8803     0.1545 C.ar    
   2 C2            -0.0665     0.4820     0.1143 C.ar    
   3 C3            -1.2991    -0.1084     0.3572 C.ar    
   4 C4            -2.3947     0.6811     0.6374 C.ar    
   5 C5            -2.2729     2.0651     0.6783 C.ar    
   6 C6            -1.0567     2.6664     0.4448 C.ar    
   7 N7             1.3612     2.1667    -0.1179 N.2     
   8 C8             2.0199     1.0627    -0.3172 C.2     
   9 N9             1.1897    -0.0072    -0.1865 N.pl3   
  10 C10            3.4886     0.9808    -0.6450 C.3     
  11 N11            3.6838     1.2242    -2.0764 N.am    
  12 C12            3.7602     2.5970    -2.5822 C.3     
  13 Cl13          -3.6635     3.0424     1.0321 Cl      
  14 Cl14          -3.9358    -0.0584     0.9403 Cl      
  15 C15            1.5595    -1.4168    -0.3371 C.3     
  16 C16            1.8022    -2.0305     1.0432 C.3     
  17 C17            0.4997    -2.0121     1.8458 C.3     
  18 C18            2.2816    -3.4745     0.8821 C.3     
  19 C19            2.8680    -1.2187     1.7821 C.3     
  20 O20            3.9724     0.4089    -4.2433 O.3     
  21 C21            4.0818    -0.7573    -5.1014 C.3     
  22 C22            2.8021    -1.5894    -4.9966 C.3     
  23 C23            4.2805    -0.3076    -6.5503 C.3     
  24 C24            5.2780    -1.6038    -4.6615 C.3     
  25 C25            3.7930     0.1852    -2.9279 C.2     
  26 O26            3.7296    -0.9534    -2.5083 O.2     
  27 H27           -1.4000    -1.1832     0.3264 H       
  28 H28           -0.9689     3.7424     0.4781 H       
  29 H29            4.0313     1.7321    -0.0714 H       
  30 H30            3.8629    -0.0108    -0.3907 H       
  31 H31            4.8049     2.8980    -2.6596 H       
  32 H32            3.2935     2.6482    -3.5659 H       
  33 H33            3.2390     3.2660    -1.8975 H       
  34 H34            0.7523    -1.9528    -0.8362 H       
  35 H35            2.4689    -1.4921    -0.9333 H       
  36 H36           -0.2596    -2.5905     1.3194 H       
  37 H37            0.6726    -2.4494     2.8291 H       
  38 H38            0.1582    -0.9834     1.9605 H       
  39 H39            3.2095    -3.4876     0.3104 H       
  40 H40            2.4546    -3.9118     1.8655 H       
  41 H41            1.5223    -4.0529     0.3557 H       
  42 H42            2.5483    -0.1791     1.8534 H       
  43 H43            3.0055    -1.6261     2.7837 H       
  44 H44            3.8096    -1.2727     1.2356 H       
  45 H45            1.9500    -0.9864    -5.3101 H       
  46 H46            2.8843    -2.4649    -5.6408 H       
  47 H47            2.6606    -1.9098    -3.9645 H       
  48 H48            5.1922     0.2852    -6.6249 H       
  49 H49            4.3627    -1.1831    -7.1944 H       
  50 H50            3.4284     0.2954    -6.8637 H       
  51 H51            5.1364    -1.9241    -3.6293 H       
  52 H52            5.3601    -2.4792    -5.3056 H       
  53 H53            6.1896    -1.0110    -4.7361 H       
@<TRIPOS>BOND
   1    1    2 ar
   2    1    7 1
   3    1    6 ar
   4    2    3 ar
   5    2    9 1
   6    3    4 ar
   7    3   27 1
   8    4    5 ar
   9    4   14 1
  10    5    6 ar
  11    5   13 1
  12    6   28 1
  13    7    8 2
  14    8    9 1
  15    8   10 1
  16    9   15 1
  17   10   11 1
  18   10   29 1
  19   10   30 1
  20   11   12 1
  21   11   25 am
  22   12   31 1
  23   12   32 1
  24   12   33 1
  25   15   16 1
  26   15   34 1
  27   15   35 1
  28   16   17 1
  29   16   18 1
  30   16   19 1
  31   17   36 1
  32   17   37 1
  33   17   38 1
  34   18   39 1
  35   18   40 1
  36   18   41 1
  37   19   42 1
  38   19   43 1
  39   19   44 1
  40   20   21 1
  41   20   25 1
  42   21   22 1
  43   21   23 1
  44   21   24 1
  45   22   45 1
  46   22   46 1
  47   22   47 1
  48   23   48 1
  49   23   49 1
  50   23   50 1
  51   24   51 1
  52   24   52 1
  53   24   53 1
  54   25   26 2

#	End of record

