#	Name: ASD02560319
#	Creating user name:	WinNT
#	Creation time:	15. 06. 2019 20:25

#	Modifying user name:	WinNT
#	Modification time:	15. 06. 2019 20:25

#	Program:	/corina/corina34_cracker 3.40 0067  02.08.2006

@<TRIPOS>MOLECULE
ASD02560319
  31   33    0    0    0
SMALL
NO_CHARGES


@<TRIPOS>ATOM
   1 C1             0.0086     1.3178     0.2426 C.2     
   2 O2             0.0161    -0.0214     0.1292 O.3     
   3 C3            -1.2542    -0.4607     0.1134 C.2     
   4 N4            -2.0470     0.5768     0.2145 N.2     
   5 N5            -1.2352     1.7171     0.3030 N.2     
   6 N6            -1.6558    -1.7835     0.0079 N.pl3   
   7 O7             1.1023     2.1167     0.2917 O.3     
   8 C8             0.9087     3.4571     0.4084 C.ar    
   9 C9             0.8299     4.0417     1.6650 C.ar    
  10 C10            0.6329     5.4052     1.7805 C.ar    
  11 C11            0.5145     6.1865     0.6459 C.ar    
  12 C12            0.5922     5.6071    -0.6071 C.ar    
  13 C13            0.7952     4.2450    -0.7289 C.ar    
  14 C14           -3.0038    -2.1134     0.1241 C.ar    
  15 C15           -3.5100    -3.2165    -0.5573 C.ar    
  16 C16           -4.8418    -3.5453    -0.4446 C.ar    
  17 C17           -5.6865    -2.7698     0.3555 C.ar    
  18 C18           -5.1747    -1.6624     1.0386 C.ar    
  19 C19           -3.8407    -1.3426     0.9260 C.ar    
  20 Cl20           0.9778     3.0614     3.0901 Cl      
  21 Cl21           0.8926     3.5183    -2.3025 Cl      
  22 C22           -7.0727    -3.1088     0.4747 C.1     
  23 N23           -8.1723    -3.3776     0.5692 N.1     
  24 H24           -0.9978    -2.4792    -0.1470 H       
  25 H25            0.5711     5.8605     2.7579 H       
  26 H26            0.3607     7.2515     0.7386 H       
  27 H27            0.4990     6.2199    -1.4915 H       
  28 H28           -2.8571    -3.8148    -1.1754 H       
  29 H29           -5.2340    -4.4012    -0.9738 H       
  30 H30           -5.8245    -1.0611     1.6571 H       
  31 H31           -3.4447    -0.4873     1.4533 H       
@<TRIPOS>BOND
   1    1    2 1
   2    1    7 1
   3    1    5 2
   4    2    3 1
   5    3    4 2
   6    3    6 1
   7    4    5 1
   8    6   14 1
   9    6   24 1
  10    7    8 1
  11    8    9 ar
  12    8   13 ar
  13    9   10 ar
  14    9   20 1
  15   10   11 ar
  16   10   25 1
  17   11   12 ar
  18   11   26 1
  19   12   13 ar
  20   12   27 1
  21   13   21 1
  22   14   15 ar
  23   14   19 ar
  24   15   16 ar
  25   15   28 1
  26   16   17 ar
  27   16   29 1
  28   17   18 ar
  29   17   22 1
  30   18   19 ar
  31   18   30 1
  32   19   31 1
  33   22   23 3

#	End of record

