#	Name: ASD01915323
#	Creating user name:	WinNT
#	Creation time:	15. 06. 2019 20:05

#	Modifying user name:	WinNT
#	Modification time:	15. 06. 2019 20:05

#	Program:	/corina/corina34_cracker 3.40 0067  02.08.2006

@<TRIPOS>MOLECULE
ASD01915323
  41   44    0    0    0
SMALL
NO_CHARGES


@<TRIPOS>ATOM
   1 N1             0.3413     1.1154    -0.1211 N.2     
   2 N2             0.8050    -0.0494    -0.7546 N.pl3   
   3 N3             2.0282     0.1712    -1.0987 N.2     
   4 N4             2.3674     1.3586    -0.7404 N.2     
   5 C5             1.3463     1.9595    -0.1368 C.2     
   6 C6             1.3434     3.3569     0.4273 C.3     
   7 C7             0.0765    -1.2282    -0.9712 C.ar    
   8 C8             0.6710    -2.3043    -1.6153 C.ar    
   9 C9            -0.0498    -3.4649    -1.8275 C.ar    
  10 C10           -1.3624    -3.5534    -1.3984 C.ar    
  11 C11           -1.9564    -2.4821    -0.7569 C.ar    
  12 C12           -1.2388    -1.3227    -0.5366 C.ar    
  13 Cl13           0.6922    -4.8119    -2.6330 Cl      
  14 N14            2.3474     3.4590     1.4953 N.am    
  15 C15            2.6182     4.7765     2.0866 C.3     
  16 C16            2.9562     5.7612     0.9628 C.3     
  17 C17            1.8276     5.7563    -0.0709 C.3     
  18 C18            1.6957     4.3576    -0.6778 C.3     
  19 C19            3.0069     2.3649     1.9246 C.2     
  20 O20            2.6998     1.2650     1.5038 O.2     
  21 C21            4.0942     2.4997     2.8984 C.2     
  22 S22            5.2316     3.8381     2.9786 S.3     
  23 C23            6.0287     3.1418     4.3168 C.2     
  24 C24            5.4596     1.9809     4.6618 C.2     
  25 C25            4.3826     1.6081     3.8930 C.2     
  26 H26            0.3569     3.5863     0.8301 H       
  27 H27            1.6952    -2.2350    -1.9508 H       
  28 H28           -1.9240    -4.4606    -1.5653 H       
  29 H29           -2.9811    -2.5537    -0.4235 H       
  30 H30           -1.7036    -0.4867    -0.0352 H       
  31 H31            1.7360     5.1242     2.6240 H       
  32 H32            3.4614     4.7024     2.7733 H       
  33 H33            3.0651     6.7633     1.3777 H       
  34 H34            3.8888     5.4616     0.4847 H       
  35 H35            0.8907     6.0320     0.4131 H       
  36 H36            2.0540     6.4743    -0.8591 H       
  37 H37            2.6401     4.0711    -1.1405 H       
  38 H38            0.9074     4.3605    -1.4306 H       
  39 H39            6.8793     3.5793     4.8182 H       
  40 H40            5.8177     1.3824     5.4865 H       
  41 H41            3.8248     0.6975     4.0542 H       
@<TRIPOS>BOND
   1    1    2 1
   2    1    5 2
   3    2    3 1
   4    2    7 1
   5    3    4 2
   6    4    5 1
   7    5    6 1
   8    6   14 1
   9    6   18 1
  10    6   26 1
  11    7    8 ar
  12    7   12 ar
  13    8    9 ar
  14    8   27 1
  15    9   10 ar
  16    9   13 1
  17   10   11 ar
  18   10   28 1
  19   11   12 ar
  20   11   29 1
  21   12   30 1
  22   14   15 1
  23   14   19 am
  24   15   16 1
  25   15   31 1
  26   15   32 1
  27   16   17 1
  28   16   33 1
  29   16   34 1
  30   17   18 1
  31   17   35 1
  32   17   36 1
  33   18   37 1
  34   18   38 1
  35   19   20 2
  36   19   21 1
  37   21   22 1
  38   21   25 2
  39   22   23 1
  40   23   24 2
  41   23   39 1
  42   24   25 1
  43   24   40 1
  44   25   41 1

#	End of record

