#	Name: ASD07930098
#	Creating user name:	WinNT
#	Creation time:	15. 06. 2019 21:11

#	Modifying user name:	WinNT
#	Modification time:	15. 06. 2019 21:11

#	Program:	/corina/corina34_cracker 3.40 0067  02.08.2006

@<TRIPOS>MOLECULE
ASD07930098
  23   23    0    0    0
SMALL
NO_CHARGES


@<TRIPOS>ATOM
   1 C1            -0.5010     1.4565     0.9357 C.2     
   2 C2            -0.5039    -0.0497     0.8886 C.3     
   3 S3             0.3302     2.2194     2.0689 S.2     
   4 N4            -1.1946     2.1607     0.0195 N.am    
   5 F5             0.2855    -0.5504     1.9295 F       
   6 F6            -1.8145    -0.5183     1.0304 F       
   7 F7             0.0146    -0.4789    -0.3378 F       
   8 C8            -1.2683     3.5541     0.1174 C.ar    
   9 C9            -2.4962     4.1946     0.0133 C.ar    
  10 C10           -2.5648     5.5758     0.1109 C.ar    
  11 C11           -1.4072     6.3147     0.3122 C.ar    
  12 C12           -0.1864     5.6756     0.4151 C.ar    
  13 C13           -0.1143     4.2987     0.3246 C.ar    
  14 O14           -3.7647     6.2060     0.0091 O.3     
  15 C15           -3.7606     7.6308     0.1192 C.3     
  16 Br16          -4.0712     3.1848    -0.2616 Br      
  17 H17           -1.6426     1.7013    -0.7079 H       
  18 H18           -1.4607     7.3907     0.3883 H       
  19 H19            0.7128     6.2532     0.5710 H       
  20 H20            0.8406     3.8015     0.4105 H       
  21 H21           -3.1394     8.0544    -0.6700 H       
  22 H22           -4.7793     8.0058     0.0204 H       
  23 H23           -3.3599     7.9190     1.0910 H       
@<TRIPOS>BOND
   1    1    2 1
   2    1    3 2
   3    1    4 am
   4    2    5 1
   5    2    6 1
   6    2    7 1
   7    4    8 1
   8    4   17 1
   9    8    9 ar
  10    8   13 ar
  11    9   10 ar
  12    9   16 1
  13   10   11 ar
  14   10   14 1
  15   11   12 ar
  16   11   18 1
  17   12   13 ar
  18   12   19 1
  19   13   20 1
  20   14   15 1
  21   15   21 1
  22   15   22 1
  23   15   23 1

#	End of record

