#	Name: ASD01881233
#	Creating user name:	WinNT
#	Creation time:	15. 06. 2019 19:42

#	Modifying user name:	WinNT
#	Modification time:	15. 06. 2019 19:42

#	Program:	/corina/corina34_cracker 3.40 0067  02.08.2006

@<TRIPOS>MOLECULE
ASD01881233
  60   61    0    0    0
SMALL
NO_CHARGES


@<TRIPOS>ATOM
   1 C1            -0.0179     1.4705     0.0101 C.2     
   2 C2             0.0021    -0.0041     0.0020 C.ar    
   3 C3             1.2209    -0.6884    -0.0133 C.ar    
   4 C4             1.2351    -2.0651    -0.0209 C.ar    
   5 C5             0.0397    -2.7746    -0.0133 C.ar    
   6 C6            -1.1746    -2.0979     0.0015 C.ar    
   7 C7            -1.1977    -0.7214     0.0154 C.ar    
   8 O8             1.0260     2.0922     0.0035 O.2     
   9 O9            -1.1939     2.1283     0.0193 O.3     
  10 O10            0.0581    -4.1314    -0.0208 O.3     
  11 C11           -1.2062    -4.7974    -0.0124 C.3     
  12 C12           -0.9852    -6.3114    -0.0227 C.3     
  13 C13           -2.3388    -7.0244    -0.0136 C.3     
  14 C14           -2.1178    -8.5384    -0.0239 C.3     
  15 O15           -3.3821    -9.2044    -0.0155 O.3     
  16 C16           -3.3637   -10.5609    -0.0230 C.ar    
  17 C17           -4.5581   -11.2676    -0.0154 C.ar    
  18 C18           -4.5417   -12.6513    -0.0230 C.ar    
  19 C19           -3.3104   -13.3316    -0.0384 C.ar    
  20 C20           -2.1145   -12.6013    -0.0459 C.ar    
  21 C21           -2.1467   -11.2370    -0.0440 C.ar    
  22 C22           -3.2786   -14.7962    -0.0462 C.2     
  23 C23           -1.9575   -15.5211    -0.0627 C.3     
  24 C24           -2.2044   -17.0310    -0.0679 C.3     
  25 C25           -0.8697   -17.7655    -0.2104 C.3     
  26 O26           -4.3160   -15.4256    -0.0393 O.2     
  27 C27           -2.8756   -17.4427     1.2439 C.3     
  28 C28           -5.8715   -10.5289     0.0016 C.3     
  29 O29           -5.7055   -13.3473    -0.0153 O.3     
  30 C30           -1.1376     3.5792     0.0269 C.3     
  31 H31            2.1501    -0.1380    -0.0195 H       
  32 H32            2.1763    -2.5946    -0.0331 H       
  33 H33           -2.1011    -2.6529     0.0069 H       
  34 H34           -2.1414    -0.1965     0.0321 H       
  35 H35           -1.7586    -4.5170     0.8844 H       
  36 H36           -1.7756    -4.5074    -0.8954 H       
  37 H37           -0.4328    -6.5918    -0.9195 H       
  38 H38           -0.4158    -6.6014     0.8604 H       
  39 H39           -2.8913    -6.7440     0.8832 H       
  40 H40           -2.9082    -6.7344    -0.8967 H       
  41 H41           -1.5654    -8.8188    -0.9207 H       
  42 H42           -1.5485    -8.8284     0.8591 H       
  43 H43           -1.1665   -13.1185    -0.0577 H       
  44 H44           -1.2225   -10.6783    -0.0545 H       
  45 H45           -1.4005   -15.2409    -0.9567 H       
  46 H46           -1.3832   -15.2499     0.8231 H       
  47 H47           -2.8528   -17.2903    -0.9048 H       
  48 H48           -0.2213   -17.5063     0.6265 H       
  49 H49           -1.0456   -18.8412    -0.2141 H       
  50 H50           -0.3916   -17.4723    -1.1450 H       
  51 H51           -3.8264   -16.9194     1.3454 H       
  52 H52           -3.0514   -18.5184     1.2402 H       
  53 H53           -2.2271   -17.1834     2.0808 H       
  54 H54           -6.1981   -10.3449    -1.0219 H       
  55 H55           -6.6194   -11.1295     0.5193 H       
  56 H56           -5.7469    -9.5780     0.5197 H       
  57 H57           -6.0518   -13.5444    -0.8963 H       
  58 H58           -0.6143     3.9271    -0.8637 H       
  59 H59           -2.1504     3.9820     0.0339 H       
  60 H60           -0.6058     3.9175     0.9162 H       
@<TRIPOS>BOND
   1    1    2 1
   2    1    8 2
   3    1    9 1
   4    2    3 ar
   5    2    7 ar
   6    3    4 ar
   7    3   31 1
   8    4    5 ar
   9    4   32 1
  10    5    6 ar
  11    5   10 1
  12    6    7 ar
  13    6   33 1
  14    7   34 1
  15    9   30 1
  16   10   11 1
  17   11   12 1
  18   11   35 1
  19   11   36 1
  20   12   13 1
  21   12   37 1
  22   12   38 1
  23   13   14 1
  24   13   39 1
  25   13   40 1
  26   14   15 1
  27   14   41 1
  28   14   42 1
  29   15   16 1
  30   16   17 ar
  31   16   21 ar
  32   17   18 ar
  33   17   28 1
  34   18   19 ar
  35   18   29 1
  36   19   20 ar
  37   19   22 1
  38   20   21 ar
  39   20   43 1
  40   21   44 1
  41   22   23 1
  42   22   26 2
  43   23   24 1
  44   23   45 1
  45   23   46 1
  46   24   25 1
  47   24   27 1
  48   24   47 1
  49   25   48 1
  50   25   49 1
  51   25   50 1
  52   27   51 1
  53   27   52 1
  54   27   53 1
  55   28   54 1
  56   28   55 1
  57   28   56 1
  58   29   57 1
  59   30   58 1
  60   30   59 1
  61   30   60 1

#	End of record

