#	Name: ASD01148699
#	Creating user name:	WinNT
#	Creation time:	15. 06. 2019 19:03

#	Modifying user name:	WinNT
#	Modification time:	15. 06. 2019 19:03

#	Program:	/corina/corina34_cracker 3.40 0067  02.08.2006

@<TRIPOS>MOLECULE
ASD01148699
  74   77    0    0    0
SMALL
NO_CHARGES


@<TRIPOS>ATOM
   1 C1            -0.0187     1.5256     0.0104 C.3     
   2 C2             0.0021    -0.0041     0.0020 C.3     
   3 C3             0.7420    -0.5108     1.2417 C.3     
   4 C4             1.4168     2.0546    -0.0004 C.3     
   5 C5             2.1567     1.5481     1.2392 C.3     
   6 C6             3.5912     2.0797     1.2290 C.3     
   7 C7             4.3337     1.5700     2.4660 C.3     
   8 C8             4.3593     0.0409     2.4505 C.3     
   9 C9             5.0497    -0.4871     3.6946 C.3     
  10 C10            6.5394    -0.1446     3.8240 C.3     
  11 C11            7.0641    -1.2732     4.7536 C.3     
  12 C12            6.0946    -2.4421     4.6105 C.2     
  13 C13            5.1079    -2.0328     3.5574 C.3     
  14 C14            5.6467    -2.4060     2.1749 C.3     
  15 C15            3.6930    -2.5563     3.7016 C.3     
  16 C16            2.8788    -2.0108     2.5163 C.3     
  17 C17            2.9164    -0.4869     2.4716 C.3     
  18 C18            2.1779     0.0180     1.2313 C.3     
  19 C19            2.8945    -0.4760    -0.0270 C.3     
  20 N20            6.1182    -3.5462     5.2568 N.2     
  21 O21            7.1242    -3.7779     6.2259 O.3     
  22 O22           -0.6874     1.9865     1.1862 O.3     
  23 Si23          -2.2952     2.1869     0.9994 Si      
  24 C24           -2.6131     3.4410    -0.3411 C.3     
  25 C25           -3.0728     0.5614     0.5263 C.3     
  26 C26           -3.0362     2.7873     2.5998 C.3     
  27 C27           -2.3976     4.1223     2.9884 C.3     
  28 C28           -4.5445     2.9753     2.4246 C.3     
  29 C29           -2.7751     1.7574     3.7007 C.3     
  30 H30           -0.5457     1.8867    -0.8727 H       
  31 H31           -1.0205    -0.3814     0.0097 H       
  32 H32            0.5124    -0.3556    -0.8947 H       
  33 H33            0.2318    -0.1589     2.1384 H       
  34 H34            0.7562    -1.6007     1.2361 H       
  35 H35            1.9269     1.7026    -0.8971 H       
  36 H36            1.4024     3.1445     0.0051 H       
  37 H37            1.6457     1.8990     2.1358 H       
  38 H38            4.1010     1.7322     0.3304 H       
  39 H39            3.5747     3.1696     1.2386 H       
  40 H40            5.3550     1.9506     2.4593 H       
  41 H41            3.8228     1.9158     3.3646 H       
  42 H42            4.8835    -0.3096     1.5614 H       
  43 H43            4.5077    -0.1836     4.5903 H       
  44 H44            7.0314    -0.1835     2.8522 H       
  45 H45            6.6730     0.8326     4.2880 H       
  46 H46            8.0639    -1.5773     4.4439 H       
  47 H47            7.0820    -0.9274     5.7872 H       
  48 H48            6.6482    -1.9938     2.0518 H       
  49 H49            5.6865    -3.4913     2.0813 H       
  50 H50            4.9893    -1.9989     1.4067 H       
  51 H51            3.6968    -3.6460     3.6783 H       
  52 H52            3.2621    -2.2062     4.6396 H       
  53 H53            3.2920    -2.4052     1.5880 H       
  54 H54            1.8440    -2.3394     2.6129 H       
  55 H55            2.4103    -0.0954     3.3541 H       
  56 H56            2.3680    -0.1148    -0.9104 H       
  57 H57            3.9173    -0.0992    -0.0341 H       
  58 H58            2.9088    -1.5659    -0.0328 H       
  59 H59            7.0601    -4.6390     6.6612 H       
  60 H60           -2.1796     3.0897    -1.2775 H       
  61 H61           -3.6877     3.5749    -0.4659 H       
  62 H62           -2.1582     4.3920    -0.0643 H       
  63 H63           -2.8868    -0.1723     1.3106 H       
  64 H64           -4.1473     0.6954     0.4015 H       
  65 H65           -2.6393     0.2102    -0.4101 H       
  66 H66           -2.5836     4.8560     2.2040 H       
  67 H67           -2.8312     4.4735     3.9247 H       
  68 H68           -1.3231     3.9883     3.1132 H       
  69 H69           -4.9995     2.0243     2.1478 H       
  70 H70           -4.9780     3.3266     3.3610 H       
  71 H71           -4.7305     3.7090     1.6403 H       
  72 H72           -1.7006     1.6235     3.8256 H       
  73 H73           -3.2087     2.1087     4.6371 H       
  74 H74           -3.2301     0.8064     3.4239 H       
@<TRIPOS>BOND
   1    1    2 1
   2    1    4 1
   3    1   22 1
   4    1   30 1
   5    2    3 1
   6    2   31 1
   7    2   32 1
   8    3   18 1
   9    3   33 1
  10    3   34 1
  11    4    5 1
  12    4   35 1
  13    4   36 1
  14    5    6 1
  15    5   18 1
  16    5   37 1
  17    6    7 1
  18    6   38 1
  19    6   39 1
  20    7    8 1
  21    7   40 1
  22    7   41 1
  23    8    9 1
  24    8   17 1
  25    8   42 1
  26    9   10 1
  27    9   13 1
  28    9   43 1
  29   10   11 1
  30   10   44 1
  31   10   45 1
  32   11   12 1
  33   11   46 1
  34   11   47 1
  35   12   13 1
  36   12   20 2
  37   13   14 1
  38   13   15 1
  39   14   48 1
  40   14   49 1
  41   14   50 1
  42   15   16 1
  43   15   51 1
  44   15   52 1
  45   16   17 1
  46   16   53 1
  47   16   54 1
  48   17   18 1
  49   17   55 1
  50   18   19 1
  51   19   56 1
  52   19   57 1
  53   19   58 1
  54   20   21 1
  55   21   59 1
  56   22   23 1
  57   23   24 1
  58   23   25 1
  59   23   26 1
  60   24   60 1
  61   24   61 1
  62   24   62 1
  63   25   63 1
  64   25   64 1
  65   25   65 1
  66   26   27 1
  67   26   29 1
  68   26   28 1
  69   27   66 1
  70   27   67 1
  71   27   68 1
  72   28   69 1
  73   28   70 1
  74   28   71 1
  75   29   72 1
  76   29   73 1
  77   29   74 1

#	End of record

