#	Name: ASD01911788
#	Creating user name:	WinNT
#	Creation time:	15. 06. 2019 19:58

#	Modifying user name:	WinNT
#	Modification time:	15. 06. 2019 19:58

#	Program:	/corina/corina34_cracker 3.40 0067  02.08.2006

@<TRIPOS>MOLECULE
ASD01911788
  42   44    0    0    0
SMALL
NO_CHARGES


@<TRIPOS>ATOM
   1 C1            -0.3518     1.5390     0.0048 C.2     
   2 N2            -0.2722     0.1915     0.3358 N.pl3   
   3 C3             0.7116     2.3931     0.3922 C.2     
   4 C4             1.7580     1.8577     1.0677 C.2     
   5 N5             1.7846     0.5495     1.3618 N.2     
   6 C6             0.8258    -0.2599     1.0215 C.2     
   7 C7            -1.3854    -0.4373    -0.1270 C.2     
   8 C8            -2.1866     0.5073    -0.7590 C.2     
   9 C9            -1.5145     1.7529    -0.6706 C.2     
  10 N10           -1.6717    -1.7858     0.0074 N.pl3   
  11 C11           -0.9244    -2.7331    -0.6996 C.ar    
  12 C12           -1.2552    -4.0824    -0.6207 C.ar    
  13 C13            0.1455    -2.3289    -1.4865 C.ar    
  14 C14            0.8818    -3.2670    -2.1845 C.ar    
  15 C15            0.5546    -4.6081    -2.1005 C.ar    
  16 C16           -0.5142    -5.0155    -1.3216 C.ar    
  17 F17           -2.2984    -4.4800     0.1401 F       
  18 I18            1.6750    -6.0254    -3.1611 I       
  19 C19           -3.4831     0.2601    -1.4026 C.2     
  20 N20           -3.5352    -0.0690    -2.7085 N.am    
  21 O21           -4.5103     0.3525    -0.7568 O.2     
  22 O22           -4.7855    -0.3074    -3.3291 O.3     
  23 C23           -4.6916    -0.6465    -4.7141 C.3     
  24 C24           -6.0944    -0.8809    -5.2780 C.3     
  25 O25           -6.8344     0.3409    -5.2373 O.3     
  26 C26           -2.0014     3.0710    -1.2154 C.3     
  27 F27           -2.7612     3.7264    -0.2406 F       
  28 F28           -0.9038     3.8656    -1.5635 F       
  29 F29           -2.7909     2.8444    -2.3479 F       
  30 H30            0.6886     3.4463     0.1541 H       
  31 H31            2.5785     2.4908     1.3717 H       
  32 H32            0.8957    -1.3055     1.2827 H       
  33 H33           -2.3904    -2.0731     0.5920 H       
  34 H34            0.4020    -1.2819    -1.5534 H       
  35 H35            1.7139    -2.9524    -2.7969 H       
  36 H36           -0.7672    -6.0635    -1.2581 H       
  37 H37           -2.7164    -0.1427    -3.2232 H       
  38 H38           -4.2136     0.1694    -5.2564 H       
  39 H39           -4.0985    -1.5540    -4.8266 H       
  40 H40           -6.0185    -1.2255    -6.3093 H       
  41 H41           -6.6052    -1.6352    -4.6796 H       
  42 H42           -7.7355     0.2666    -5.5804 H       
@<TRIPOS>BOND
   1    1    2 1
   2    1    3 1
   3    1    9 2
   4    2    7 1
   5    2    6 1
   6    3    4 2
   7    3   30 1
   8    4    5 1
   9    4   31 1
  10    5    6 2
  11    6   32 1
  12    7    8 2
  13    7   10 1
  14    8    9 1
  15    8   19 1
  16    9   26 1
  17   10   11 1
  18   10   33 1
  19   11   12 ar
  20   11   13 ar
  21   12   17 1
  22   12   16 ar
  23   13   14 ar
  24   13   34 1
  25   14   15 ar
  26   14   35 1
  27   15   16 ar
  28   15   18 1
  29   16   36 1
  30   19   20 am
  31   19   21 2
  32   20   22 1
  33   20   37 1
  34   22   23 1
  35   23   24 1
  36   23   38 1
  37   23   39 1
  38   24   25 1
  39   24   40 1
  40   24   41 1
  41   25   42 1
  42   26   27 1
  43   26   28 1
  44   26   29 1

#	End of record

