#	Name: ASD05430065
#	Creating user name:	WinNT
#	Creation time:	15. 06. 2019 20:59

#	Modifying user name:	WinNT
#	Modification time:	15. 06. 2019 20:59

#	Program:	/corina/corina34_cracker 3.40 0067  02.08.2006

@<TRIPOS>MOLECULE
ASD05430065
  61   67    0    0    0
SMALL
NO_CHARGES


@<TRIPOS>ATOM
   1 C1             0.0671     1.1543     0.4377 C.ar    
   2 C2             0.0199    -0.0130    -0.3262 C.ar    
   3 C3             1.1571    -0.4669    -0.9768 C.ar    
   4 C4             2.3489     0.2248    -0.8809 C.ar    
   5 C5             2.4234     1.3944    -0.1237 C.ar    
   6 C6             1.2704     1.8648     0.5427 C.ar    
   7 C7             4.8803    -0.0506     0.2053 C.3     
   8 C8             4.8562     1.4559     0.0677 C.2     
   9 C9             3.6898     2.1297    -0.0203 C.2     
  10 C10            6.2206    -0.5007     0.7775 C.3     
  11 C11            6.8869     0.5136     1.7049 C.3     
  12 N12            7.1142     1.7558     0.9633 N.pl3   
  13 C13            6.1453     2.1615     0.0335 C.2     
  14 N14           -1.1804    -0.7287    -0.4356 N.pl3   
  15 C15           -1.7654    -1.1662    -1.5955 C.2     
  16 C16           -2.8979    -1.8050    -1.2444 C.2     
  17 N17           -3.0061    -1.7615     0.0917 N.2     
  18 C18           -1.9804    -1.1246     0.5881 C.2     
  19 C19           -3.8750    -2.4553    -2.1895 C.3     
  20 N20           -0.2526     2.9649     1.7396 N.2     
  21 O21           -0.8541     1.8244     1.1601 O.3     
  22 C22            0.9989     3.0201     1.3962 C.2     
  23 C23            6.1910    -1.9244     1.3556 C.3     
  24 O24            7.4519    -2.1018     0.6782 O.3     
  25 C25            7.1766    -1.0658    -0.2866 C.3     
  26 C26            8.2969     2.5854     1.1867 C.3     
  27 C27            8.8003     3.1017    -0.1663 C.3     
  28 N28            7.6772     3.6569    -0.9253 N.pl3   
  29 N29            6.4000     3.0919    -0.8324 N.2     
  30 C30            7.9362     3.7519     2.0700 C.ar    
  31 C31            8.8120     4.1691     3.0550 C.ar    
  32 C32            6.7324     4.4075     1.8911 C.ar    
  33 C33            6.4009     5.4778     2.7000 C.ar    
  34 C34            7.2750     5.8933     3.6902 C.ar    
  35 C35            8.4825     5.2389     3.8654 C.ar    
  36 F36            6.9520     6.9395     4.4816 F       
  37 H37            1.1105    -1.3715    -1.5649 H       
  38 H38            3.2263    -0.1413    -1.3934 H       
  39 H39            4.0780    -0.3657     0.8724 H       
  40 H40            4.7339    -0.5057    -0.7743 H       
  41 H41            3.6883     3.2097    -0.0147 H       
  42 H42            6.2370     0.7110     2.5573 H       
  43 H43            7.8403     0.1174     2.0544 H       
  44 H44           -1.3903    -1.0254    -2.5985 H       
  45 H45           -1.8016    -0.9375     1.6366 H       
  46 H46           -3.5905    -3.4957    -2.3471 H       
  47 H47           -4.8768    -2.4134    -1.7619 H       
  48 H48           -3.8646    -1.9273    -3.1430 H       
  49 H49            1.7083     3.7810     1.6865 H       
  50 H50            6.2650    -1.9609     2.4425 H       
  51 H51            5.3866    -2.5446     0.9601 H       
  52 H52            6.6747    -1.4225    -1.1861 H       
  53 H53            8.0304    -0.4224    -0.4991 H       
  54 H54            9.0758     1.9904     1.6635 H       
  55 H55            9.5480     3.8779    -0.0037 H       
  56 H56            9.2459     2.2794    -0.7261 H       
  57 H57            7.8203     4.4257    -1.4993 H       
  58 H58            9.7539     3.6585     3.1914 H       
  59 H59            6.0508     4.0833     1.1186 H       
  60 H60            5.4607     5.9903     2.5595 H       
  61 H61            9.1649     5.5619     4.6377 H       
@<TRIPOS>BOND
   1    1    2 ar
   2    1    6 ar
   3    1   21 1
   4    2    3 ar
   5    2   14 1
   6    3    4 ar
   7    3   37 1
   8    4    5 ar
   9    4   38 1
  10    5    6 ar
  11    5    9 1
  12    6   22 1
  13    7    8 1
  14    7   10 1
  15    7   39 1
  16    7   40 1
  17    8    9 2
  18    8   13 1
  19    9   41 1
  20   10   11 1
  21   10   23 1
  22   10   25 1
  23   11   12 1
  24   11   42 1
  25   11   43 1
  26   12   13 1
  27   12   26 1
  28   13   29 2
  29   14   15 1
  30   14   18 1
  31   15   16 2
  32   15   44 1
  33   16   17 1
  34   16   19 1
  35   17   18 2
  36   18   45 1
  37   19   46 1
  38   19   47 1
  39   19   48 1
  40   20   21 1
  41   20   22 2
  42   22   49 1
  43   23   24 1
  44   23   50 1
  45   23   51 1
  46   24   25 1
  47   25   52 1
  48   25   53 1
  49   26   27 1
  50   26   30 1
  51   26   54 1
  52   27   28 1
  53   27   55 1
  54   27   56 1
  55   28   29 1
  56   28   57 1
  57   30   31 ar
  58   30   32 ar
  59   31   35 ar
  60   31   58 1
  61   32   33 ar
  62   32   59 1
  63   33   34 ar
  64   33   60 1
  65   34   35 ar
  66   34   36 1
  67   35   61 1

#	End of record

