#	Name: ASD01028379
#	Creating user name:	WinNT
#	Creation time:	15. 06. 2019 18:57

#	Modifying user name:	WinNT
#	Modification time:	15. 06. 2019 18:57

#	Program:	/corina/corina34_cracker 3.40 0067  02.08.2006

@<TRIPOS>MOLECULE
ASD01028379
  45   49    0    0    0
SMALL
NO_CHARGES


@<TRIPOS>ATOM
   1 C1            -0.0171     1.4118     0.0098 C.ar    
   2 C2             0.0021    -0.0041     0.0020 C.ar    
   3 C3             1.2105     2.1116     0.0018 C.ar    
   4 C4             2.3793     1.3714    -0.0133 C.ar    
   5 C5             2.3160    -0.0162    -0.0202 C.ar    
   6 N6             1.1704    -0.6565    -0.0123 N.ar    
   7 O7             1.2420     3.4670     0.0084 O.3     
   8 C8             2.5299     4.0861    -0.0005 C.3     
   9 C9             2.3673     5.5842     0.0086 C.2     
  10 N10            2.2915     6.3713     1.1040 N.pl3   
  11 C11            2.1486     7.6569     0.6381 C.2     
  12 N12            2.1449     7.5870    -0.6830 N.2     
  13 N13            2.2796     6.3586    -1.0441 N.2     
  14 N14            2.3297     6.1247     2.4778 N.2     
  15 C15            2.2299     7.1157     3.3360 C.2     
  16 C16            2.0819     8.4459     2.8891 C.2     
  17 C17            2.0417     8.7172     1.5579 C.2     
  18 C18            2.2728     6.8319     4.7917 C.ar    
  19 C19           -1.2152    -0.7043     0.0100 C.ar    
  20 C20           -2.4012    -0.0065     0.0251 C.ar    
  21 C21           -2.4085     1.3917     0.0322 C.ar    
  22 C22           -1.2431     2.0938     0.0309 C.ar    
  23 O23           -3.5786    -0.6840     0.0328 O.3     
  24 C24           -4.7758     0.0961     0.0485 C.3     
  25 C25            2.1688     7.8674     5.7178 C.ar    
  26 N26            2.2066     7.6184     7.0108 N.ar    
  27 C27            2.3430     6.3936     7.4805 C.ar    
  28 C28            2.4530     5.3095     6.6248 C.ar    
  29 C29            2.4126     5.5210     5.2554 C.ar    
  30 F30            2.5923     4.0600     7.1194 F       
  31 H31            3.3370     1.8705    -0.0202 H       
  32 H32            3.2348    -0.5838    -0.0321 H       
  33 H33            3.0883     3.7758     0.8827 H       
  34 H34            3.0716     3.7849    -0.8972 H       
  35 H35            2.0007     9.2496     3.6059 H       
  36 H36            1.9289     9.7335     1.2102 H       
  37 H37           -1.2205    -1.7843     0.0039 H       
  38 H38           -3.3501     1.9205     0.0433 H       
  39 H39           -1.2617     3.1736     0.0364 H       
  40 H40           -4.8082     0.7297    -0.8378 H       
  41 H41           -5.6412    -0.5666     0.0533 H       
  42 H42           -4.7911     0.7202     0.9420 H       
  43 H43            2.0562     8.8845     5.3723 H       
  44 H44            2.3698     6.2334     8.5482 H       
  45 H45            2.4955     4.6950     4.5647 H       
@<TRIPOS>BOND
   1    1    2 ar
   2    1    3 ar
   3    1   22 ar
   4    2   19 ar
   5    2    6 ar
   6    3    4 ar
   7    3    7 1
   8    4    5 ar
   9    4   31 1
  10    5    6 ar
  11    5   32 1
  12    7    8 1
  13    8    9 1
  14    8   33 1
  15    8   34 1
  16    9   10 1
  17    9   13 2
  18   10   11 1
  19   10   14 1
  20   11   12 2
  21   11   17 1
  22   12   13 1
  23   14   15 2
  24   15   16 1
  25   15   18 1
  26   16   17 2
  27   16   35 1
  28   17   36 1
  29   18   25 ar
  30   18   29 ar
  31   19   20 ar
  32   19   37 1
  33   20   21 ar
  34   20   23 1
  35   21   22 ar
  36   21   38 1
  37   22   39 1
  38   23   24 1
  39   24   40 1
  40   24   41 1
  41   24   42 1
  42   25   26 ar
  43   25   43 1
  44   26   27 ar
  45   27   28 ar
  46   27   44 1
  47   28   29 ar
  48   28   30 1
  49   29   45 1

#	End of record

