#	Name: ASD01881582
#	Creating user name:	WinNT
#	Creation time:	15. 06. 2019 19:42

#	Modifying user name:	WinNT
#	Modification time:	15. 06. 2019 19:42

#	Program:	/corina/corina34_cracker 3.40 0067  02.08.2006

@<TRIPOS>MOLECULE
ASD01881582
  49   51    0    0    0
SMALL
NO_CHARGES


@<TRIPOS>ATOM
   1 N1            -0.0154     1.2839     0.0091 N.pl3   
   2 N2             0.0021    -0.0041     0.0020 N.2     
   3 N3             1.2033    -0.4649    -0.0119 N.2     
   4 C4             2.0741     0.5645    -0.0147 C.ar    
   5 C5             1.2843     1.7298    -0.0009 C.ar    
   6 C6             3.4670     0.6759    -0.0271 C.ar    
   7 C7             4.0484     1.9285    -0.0255 C.ar    
   8 C8             3.2560     3.0739    -0.0118 C.ar    
   9 C9             1.8924     2.9784    -0.0004 C.ar    
  10 C10           -1.2133     2.1272     0.0196 C.3     
  11 C11           -1.6228     2.4135     1.4657 C.3     
  12 C12           -0.4829     3.1377     2.1848 C.3     
  13 C13           -2.8739     3.2942     1.4767 C.3     
  14 C14           -1.9212     1.0947     2.1818 C.3     
  15 Br15           4.5472    -0.8761    -0.0451 Br      
  16 O16            5.4033     2.0444    -0.0370 O.3     
  17 C17            5.9411     3.3683    -0.0346 C.3     
  18 C18            7.4465     3.2990    -0.0485 C.ar    
  19 C19            8.1262     3.2737    -1.2519 C.ar    
  20 C20            9.5070     3.2100    -1.2646 C.ar    
  21 C21           10.2081     3.1722    -0.0739 C.ar    
  22 C22            9.5285     3.1984     1.1296 C.ar    
  23 C23            8.1478     3.2664     1.1423 C.ar    
  24 C24           10.2928     3.1567     2.4277 C.3     
  25 F25           11.6644     3.0937     2.1594 F       
  26 F26           10.0152     4.3098     3.1696 F       
  27 F27            9.9084     2.0278     3.1591 F       
  28 C28           10.2480     3.1814    -2.5766 C.3     
  29 F29           10.5380     4.4901    -2.9770 F       
  30 F30           11.4401     2.4655    -2.4233 F       
  31 F31            9.4536     2.5619    -3.5474 F       
  32 H32            3.7236     4.0474    -0.0103 H       
  33 H33            1.2882     3.8735     0.0104 H       
  34 H34           -1.0007     3.0667    -0.4906 H       
  35 H35           -2.0254     1.6113    -0.4926 H       
  36 H36           -0.2704     4.0772     1.6746 H       
  37 H37           -0.7747     3.3417     3.2150 H       
  38 H38            0.4083     2.5103     2.1769 H       
  39 H39           -3.6860     2.7782     0.9644 H       
  40 H40           -3.1656     3.4981     2.5069 H       
  41 H41           -2.6613     4.2337     0.9665 H       
  42 H42           -1.0299     0.4673     2.1740 H       
  43 H43           -2.2129     1.2987     3.2121 H       
  44 H44           -2.7333     0.5788     1.6696 H       
  45 H45            5.5939     3.9031    -0.9187 H       
  46 H46            5.6098     3.8935     0.8612 H       
  47 H47            7.5784     3.3032    -2.1822 H       
  48 H48           11.2869     3.1217    -0.0838 H       
  49 H49            7.6170     3.2907     2.0825 H       
@<TRIPOS>BOND
   1    1    2 1
   2    1    5 1
   3    1   10 1
   4    2    3 2
   5    3    4 1
   6    4    5 ar
   7    4    6 ar
   8    5    9 ar
   9    6    7 ar
  10    6   15 1
  11    7    8 ar
  12    7   16 1
  13    8    9 ar
  14    8   32 1
  15    9   33 1
  16   10   11 1
  17   10   34 1
  18   10   35 1
  19   11   12 1
  20   11   13 1
  21   11   14 1
  22   12   36 1
  23   12   37 1
  24   12   38 1
  25   13   39 1
  26   13   40 1
  27   13   41 1
  28   14   42 1
  29   14   43 1
  30   14   44 1
  31   16   17 1
  32   17   18 1
  33   17   45 1
  34   17   46 1
  35   18   19 ar
  36   18   23 ar
  37   19   20 ar
  38   19   47 1
  39   20   21 ar
  40   20   28 1
  41   21   22 ar
  42   21   48 1
  43   22   23 ar
  44   22   24 1
  45   23   49 1
  46   24   25 1
  47   24   26 1
  48   24   27 1
  49   28   29 1
  50   28   30 1
  51   28   31 1

#	End of record

