#	Name: ASD01028291
#	Creating user name:	WinNT
#	Creation time:	15. 06. 2019 18:56

#	Modifying user name:	WinNT
#	Modification time:	15. 06. 2019 18:56

#	Program:	/corina/corina34_cracker 3.40 0067  02.08.2006

@<TRIPOS>MOLECULE
ASD01028291
  45   49    0    0    0
SMALL
NO_CHARGES


@<TRIPOS>ATOM
   1 C1            -0.0157     1.3066     0.0092 C.ar    
   2 N2             0.0021    -0.0041     0.0020 N.ar    
   3 C3             1.1590     2.0560     0.0020 C.ar    
   4 C4             2.3700     1.4248    -0.0129 C.ar    
   5 C5             2.3853     0.0171    -0.0205 C.ar    
   6 C6             1.1534    -0.6834    -0.0126 C.ar    
   7 C7             3.5916    -0.7008    -0.0353 C.ar    
   8 C8             3.5644    -2.0622    -0.0419 C.ar    
   9 C9             2.3546    -2.7530    -0.0346 C.ar    
  10 C10            1.1666    -2.0889    -0.0202 C.ar    
  11 C11            5.3051    -3.0955     1.3576 C.2     
  12 N12            4.9836    -4.1726     2.1069 N.pl3   
  13 C13            5.6074    -3.9916     3.3186 C.2     
  14 N14            6.2594    -2.8428     3.2455 N.2     
  15 N15            6.0780    -2.3244     2.0812 N.2     
  16 N16            4.2092    -5.3125     1.8816 N.2     
  17 C17            4.0695    -6.2202     2.8223 C.2     
  18 C18            4.6971    -6.0631     4.0763 C.2     
  19 C19            5.4578    -4.9646     4.3250 C.2     
  20 C20            3.2419    -7.4238     2.5624 C.ar    
  21 C21            2.6171    -7.5895     1.3281 C.ar    
  22 C22            3.0914    -8.3954     3.5500 C.ar    
  23 C23            2.3202    -9.5140     3.3023 C.ar    
  24 Cl24           2.1311   -10.7259     4.5309 Cl      
  25 C25            1.6971    -9.6701     2.0757 C.ar    
  26 C26            0.8563   -10.8924     1.8108 C.3     
  27 C27            4.8600    -2.8318    -0.0578 C.3     
  28 C28            1.8484    -8.7113     1.0909 C.ar    
  29 O29            0.3233   -10.8260     0.4866 O.3     
  30 H30           -0.9662     1.8194     0.0165 H       
  31 H31            1.1119     3.1349     0.0079 H       
  32 H32            3.2904     1.9898    -0.0190 H       
  33 H33            4.5357    -0.1763    -0.0418 H       
  34 H34            2.3595    -3.8330    -0.0408 H       
  35 H35            0.2377    -2.6397    -0.0140 H       
  36 H36            4.5730    -6.8170     4.8396 H       
  37 H37            5.9407    -4.8392     5.2828 H       
  38 H38            2.7337    -6.8411     0.5581 H       
  39 H39            3.5772    -8.2741     4.5069 H       
  40 H40            1.4726   -11.7859     1.9100 H       
  41 H41            0.0383   -10.9335     2.5300 H       
  42 H42            4.7131    -3.7799    -0.5751 H       
  43 H43            5.6221    -2.2496    -0.5758 H       
  44 H44            1.3639    -8.8401     0.1343 H       
  45 H45           -0.2297   -11.5821     0.2468 H       
@<TRIPOS>BOND
   1    1    2 ar
   2    1    3 ar
   3    1   30 1
   4    2    6 ar
   5    3    4 ar
   6    3   31 1
   7    4    5 ar
   8    4   32 1
   9    5    6 ar
  10    5    7 ar
  11    6   10 ar
  12    7    8 ar
  13    7   33 1
  14    8    9 ar
  15    8   27 1
  16    9   10 ar
  17    9   34 1
  18   10   35 1
  19   11   12 1
  20   11   27 1
  21   11   15 2
  22   12   13 1
  23   12   16 1
  24   13   14 2
  25   13   19 1
  26   14   15 1
  27   16   17 2
  28   17   18 1
  29   17   20 1
  30   18   19 2
  31   18   36 1
  32   19   37 1
  33   20   21 ar
  34   20   22 ar
  35   21   28 ar
  36   21   38 1
  37   22   23 ar
  38   22   39 1
  39   23   24 1
  40   23   25 ar
  41   25   26 1
  42   25   28 ar
  43   26   29 1
  44   26   40 1
  45   26   41 1
  46   27   42 1
  47   27   43 1
  48   28   44 1
  49   29   45 1

#	End of record

