#	Name: ASD01001220
#	Creating user name:	WinNT
#	Creation time:	15. 06. 2019 18:55

#	Modifying user name:	WinNT
#	Modification time:	15. 06. 2019 18:55

#	Program:	/corina/corina34_cracker 3.40 0067  02.08.2006

@<TRIPOS>MOLECULE
ASD01001220
  38   40    0    0    0
SMALL
NO_CHARGES


@<TRIPOS>ATOM
   1 C1            -0.2754    -0.1888     2.4600 C.2     
   2 C2            -0.1172    -0.9010     1.2604 C.2     
   3 C3             1.2191    -1.1443     1.1215 C.2     
   4 O4             1.8538    -0.6080     2.1839 O.3     
   5 C5             0.9558    -0.0306     2.9937 C.2     
   6 C6             1.8543    -1.8644     0.0100 C.2     
   7 C7             3.2657    -1.9506    -0.0632 C.2     
   8 O8             1.1660    -2.3880    -0.8499 O.2     
   9 C9             3.8492    -3.1522     0.0790 C.2     
  10 C10            2.9828    -4.3699     0.2722 C.3     
  11 C11            4.0578    -0.6936    -0.3038 C.3     
  12 N12            5.4717    -0.9417     0.0216 N.pl3   
  13 C13            3.9375    -0.2921    -1.7514 C.ar    
  14 C14            4.5948    -1.0188    -2.7266 C.ar    
  15 C15            4.4867    -0.6527    -4.0557 C.ar    
  16 C16            3.7214     0.4405    -4.4121 C.ar    
  17 C17            3.0604     1.1713    -3.4353 C.ar    
  18 C18            3.1658     0.7986    -2.1033 C.ar    
  19 O19            2.3072     2.2475    -3.7834 O.3     
  20 C20            5.9837    -2.1992    -0.3429 C.2     
  21 C21            7.1204    -2.3360    -1.0207 C.2     
  22 N22            5.2115    -3.3003     0.0527 N.pl3   
  23 H23           -1.2057     0.1694     2.8756 H       
  24 H24           -0.9008    -1.1989     0.5794 H       
  25 H25            1.1794     0.4776     3.9200 H       
  26 H26            2.6594    -4.7436    -0.6993 H       
  27 H27            3.5525    -5.1432     0.7877 H       
  28 H28            2.1097    -4.1038     0.8681 H       
  29 H29            3.6734     0.1058     0.3296 H       
  30 H30            6.0201    -0.2743     0.4630 H       
  31 H31            5.1939    -1.8737    -2.4499 H       
  32 H32            5.0015    -1.2218    -4.8157 H       
  33 H33            3.6379     0.7264    -5.4502 H       
  34 H34            2.6522     1.3658    -1.3411 H       
  35 H35            1.3824     2.0362    -3.9713 H       
  36 H36            7.6848    -1.4620    -1.3105 H       
  37 H37            7.4786    -3.3210    -1.2810 H       
  38 H38            5.6284    -4.1404     0.3004 H       
@<TRIPOS>BOND
   1    1    2 1
   2    1    5 2
   3    1   23 1
   4    2    3 2
   5    2   24 1
   6    3    4 1
   7    3    6 1
   8    4    5 1
   9    5   25 1
  10    6    7 1
  11    6    8 2
  12    7   11 1
  13    7    9 2
  14    9   10 1
  15    9   22 1
  16   10   26 1
  17   10   27 1
  18   10   28 1
  19   11   12 1
  20   11   13 1
  21   11   29 1
  22   12   20 1
  23   12   30 1
  24   13   14 ar
  25   13   18 ar
  26   14   15 ar
  27   14   31 1
  28   15   16 ar
  29   15   32 1
  30   16   17 ar
  31   16   33 1
  32   17   18 ar
  33   17   19 1
  34   18   34 1
  35   19   35 1
  36   20   21 2
  37   20   22 1
  38   21   36 1
  39   21   37 1
  40   22   38 1

#	End of record

