#	Name: ASD01850058
#	Creating user name:	WinNT
#	Creation time:	15. 06. 2019 19:38

#	Modifying user name:	WinNT
#	Modification time:	15. 06. 2019 19:38

#	Program:	/corina/corina34_cracker 3.40 0067  02.08.2006

@<TRIPOS>MOLECULE
ASD01850058
  63   67    0    0    0
SMALL
NO_CHARGES


@<TRIPOS>ATOM
   1 C1            -0.0611     1.8575     0.0792 C.ar    
   2 C2            -0.0034     0.4775     0.1566 C.ar    
   3 C3            -1.1713    -0.2582     0.2271 C.ar    
   4 C4            -2.3934     0.3853     0.2201 C.ar    
   5 C5            -2.4546     1.7669     0.1421 C.ar    
   6 C6            -1.2881     2.5047     0.0773 C.ar    
   7 C7            -3.6496     2.6957     0.1174 C.3     
   8 C8            -3.0849     4.0897     0.4645 C.3     
   9 C9            -1.6188     3.9797    -0.0010 C.3     
  10 N10           -4.2548     2.7102    -1.2166 N.am    
  11 C11           -3.4888     2.9390    -2.3017 C.2     
  12 C12           -5.6926     2.4759    -1.3713 C.3     
  13 C13           -4.1098     2.9452    -3.6748 C.3     
  14 C14           -3.0893     3.4579    -4.6936 C.3     
  15 C15           -3.7349     3.4955    -6.0823 C.3     
  16 N16           -4.2766     2.1644    -6.3882 N.am    
  17 C17           -5.1978     1.5392    -5.4295 C.3     
  18 C18           -4.5358     1.5234    -4.0481 C.3     
  19 S19           -3.8572     1.3840    -7.7873 S.o2    
  20 C20           -2.4200     0.4258    -7.4394 C.ar    
  21 C21           -2.5545    -0.8590    -6.9997 C.ar    
  22 C22           -1.4123    -1.6192    -6.7242 C.ar    
  23 C23           -0.1368    -1.0502    -6.9035 C.ar    
  24 C24           -0.0309     0.2635    -7.3539 C.ar    
  25 C25           -1.1603     0.9839    -7.6208 C.ar    
  26 C26           -1.1907    -2.9825    -6.2531 C.2     
  27 N27            0.0955    -3.1712    -6.1721 N.2     
  28 N28            0.7764    -2.0131    -6.5613 N.pl3   
  29 C29           -6.4473     3.7932    -1.1814 C.3     
  30 C30           -7.9490     3.5485    -1.3429 C.3     
  31 F31            1.0803     2.5769     0.0110 F       
  32 O32           -2.2996     3.1399    -2.1730 O.2     
  33 O33           -4.9007     0.4583    -8.0586 O.2     
  34 O34           -3.4550     2.3923    -8.7042 O.2     
  35 H35            0.9530    -0.0242     0.1617 H       
  36 H36           -1.1284    -1.3356     0.2872 H       
  37 H37           -3.3050    -0.1912     0.2753 H       
  38 H38           -4.3829     2.3884     0.8630 H       
  39 H39           -3.6110     4.8691    -0.0868 H       
  40 H40           -3.1350     4.2717     1.5380 H       
  41 H41           -0.9677     4.5495     0.6619 H       
  42 H42           -1.5199     4.3351    -1.0267 H       
  43 H43           -5.8916     2.0836    -2.3686 H       
  44 H44           -6.0258     1.7553    -0.6243 H       
  45 H45           -4.9829     3.5977    -3.6755 H       
  46 H46           -2.7689     4.4615    -4.4140 H       
  47 H47           -2.2268     2.7917    -4.7113 H       
  48 H48           -4.5412     4.2289    -6.0907 H       
  49 H49           -2.9854     3.7649    -6.8265 H       
  50 H50           -6.1234     2.1130    -5.3846 H       
  51 H51           -5.4135     0.5177    -5.7429 H       
  52 H52           -3.6596     0.8755    -4.0719 H       
  53 H53           -5.2448     1.1503    -3.3091 H       
  54 H54           -3.5370    -1.2868    -6.8649 H       
  55 H55            0.9421     0.7106    -7.4947 H       
  56 H56           -1.0734     2.0021    -7.9701 H       
  57 H57           -1.9564    -3.7058    -6.0143 H       
  58 H58            1.7404    -1.9083    -6.5854 H       
  59 H59           -6.2483     4.1854    -0.1841 H       
  60 H60           -6.1142     4.5137    -1.9283 H       
  61 H61           -8.4867     4.4869    -1.2076 H       
  62 H62           -8.1480     3.1562    -2.3402 H       
  63 H63           -8.2821     2.8279    -0.5959 H       
@<TRIPOS>BOND
   1    1    2 ar
   2    1   31 1
   3    1    6 ar
   4    2    3 ar
   5    2   35 1
   6    3    4 ar
   7    3   36 1
   8    4    5 ar
   9    4   37 1
  10    5    6 ar
  11    5    7 1
  12    6    9 1
  13    7    8 1
  14    7   10 1
  15    7   38 1
  16    8    9 1
  17    8   39 1
  18    8   40 1
  19    9   41 1
  20    9   42 1
  21   10   11 am
  22   10   12 1
  23   11   13 1
  24   11   32 2
  25   12   29 1
  26   12   43 1
  27   12   44 1
  28   13   14 1
  29   13   18 1
  30   13   45 1
  31   14   15 1
  32   14   46 1
  33   14   47 1
  34   15   16 1
  35   15   48 1
  36   15   49 1
  37   16   17 1
  38   16   19 am
  39   17   18 1
  40   17   50 1
  41   17   51 1
  42   18   52 1
  43   18   53 1
  44   19   20 1
  45   19   33 2
  46   19   34 2
  47   20   21 ar
  48   20   25 ar
  49   21   22 ar
  50   21   54 1
  51   22   23 ar
  52   22   26 1
  53   23   24 ar
  54   23   28 1
  55   24   25 ar
  56   24   55 1
  57   25   56 1
  58   26   27 2
  59   26   57 1
  60   27   28 1
  61   28   58 1
  62   29   30 1
  63   29   59 1
  64   29   60 1
  65   30   61 1
  66   30   62 1
  67   30   63 1

#	End of record

