#	Name: ASD01920062
#	Creating user name:	WinNT
#	Creation time:	15. 06. 2019 20:11

#	Modifying user name:	WinNT
#	Modification time:	15. 06. 2019 20:11

#	Program:	/corina/corina34_cracker 3.40 0067  02.08.2006

@<TRIPOS>MOLECULE
ASD01920062
  37   39    0    0    0
SMALL
NO_CHARGES


@<TRIPOS>ATOM
   1 C1            -0.0232     1.3025    -0.0059 C.ar    
   2 N2             0.0752     0.1048     0.5372 N.ar    
   3 C3            -0.9609    -0.4612     1.1324 C.ar    
   4 C4            -2.1675     0.2218     1.1826 C.ar    
   5 C5            -2.2355     1.4871     0.5976 C.ar    
   6 N6            -1.1453     1.9891     0.0224 N.ar    
   7 C7            -3.5009     2.2621     0.6214 C.2     
   8 O8            -4.4889     1.7960     1.1532 O.2     
   9 N9            -3.5541     3.4830     0.0530 N.am    
  10 C10           -4.7731     4.1664    -0.0245 C.ar    
  11 C11           -4.8031     5.5498     0.0967 C.ar    
  12 C12           -5.9524     3.4621    -0.2283 C.ar    
  13 C13           -7.1554     4.1376    -0.3052 C.ar    
  14 C14           -7.1845     5.5199    -0.1787 C.ar    
  15 C15           -6.0057     6.2237     0.0201 C.ar    
  16 O16           -8.3684     6.1845    -0.2548 O.3     
  17 Cl17          -8.6301     3.2579    -0.5605 Cl      
  18 C18           -9.1550     6.2132     0.8504 C.ar    
  19 C19          -10.4163     6.7905     0.7817 C.ar    
  20 C20          -11.2095     6.8132     1.9158 C.ar    
  21 C21          -10.7096     6.2543     3.0848 C.ar    
  22 C22           -9.4450     5.6967     3.0801 C.ar    
  23 N23           -8.7151     5.6861     1.9811 N.ar    
  24 Cl24         -11.6624     6.2565     4.5360 Cl      
  25 C25            1.1864     1.9050    -0.6728 C.3     
  26 H26           -0.8692    -1.4427     1.5736 H       
  27 H27           -3.0316    -0.2145     1.6614 H       
  28 H28           -2.7475     3.8882    -0.3023 H       
  29 H29           -3.8856     6.0983     0.2511 H       
  30 H30           -5.9293     2.3868    -0.3270 H       
  31 H31           -6.0291     7.2990     0.1185 H       
  32 H32          -10.7734     7.2165    -0.1443 H       
  33 H33          -12.1944     7.2557     1.8923 H       
  34 H34           -9.0511     5.2606     3.9862 H       
  35 H35            1.1991     1.6229    -1.7256 H       
  36 H36            1.1449     2.9909    -0.5881 H       
  37 H37            2.0902     1.5370    -0.1871 H       
@<TRIPOS>BOND
   1    1    2 ar
   2    1   25 1
   3    1    6 ar
   4    2    3 ar
   5    3    4 ar
   6    3   26 1
   7    4    5 ar
   8    4   27 1
   9    5    6 ar
  10    5    7 1
  11    7    8 2
  12    7    9 am
  13    9   10 1
  14    9   28 1
  15   10   11 ar
  16   10   12 ar
  17   11   15 ar
  18   11   29 1
  19   12   13 ar
  20   12   30 1
  21   13   14 ar
  22   13   17 1
  23   14   15 ar
  24   14   16 1
  25   15   31 1
  26   16   18 1
  27   18   19 ar
  28   18   23 ar
  29   19   20 ar
  30   19   32 1
  31   20   21 ar
  32   20   33 1
  33   21   22 ar
  34   21   24 1
  35   22   23 ar
  36   22   34 1
  37   25   35 1
  38   25   36 1
  39   25   37 1

#	End of record

