#	Name: ASD07850001
#	Creating user name:	WinNT
#	Creation time:	15. 06. 2019 21:11

#	Modifying user name:	WinNT
#	Modification time:	15. 06. 2019 21:11

#	Program:	/corina/corina34_cracker 3.40 0067  02.08.2006

@<TRIPOS>MOLECULE
ASD07850001
  17   17    0    0    0
SMALL
NO_CHARGES


@<TRIPOS>ATOM
   1 C1            -0.0169     1.3930     0.0097 C.ar    
   2 C2             0.0021    -0.0041     0.0020 C.ar    
   3 C3             1.2251    -0.6794    -0.0133 C.ar    
   4 C4             2.4041     0.0362    -0.0207 C.ar    
   5 C5             2.3777     1.4198    -0.0126 C.ar    
   6 C6             1.1700     2.0954     0.0021 C.ar    
   7 C7             3.6702     2.1945    -0.0197 C.3     
   8 C8            -1.2634    -0.7626     0.0105 C.2     
   9 O9            -2.3322    -0.1685     0.0243 O.co2   
  10 O10           -1.2434    -1.9853     0.0038 O.co2   
  11 H11           -0.9587     1.9215     0.0170 H       
  12 H12            1.2472    -1.7591    -0.0189 H       
  13 H13            3.3502    -0.4844    -0.0325 H       
  14 H14            1.1569     3.1753     0.0084 H       
  15 H15            3.9726     2.3872    -1.0491 H       
  16 H16            3.5290     3.1417     0.5008 H       
  17 H17            4.4440     1.6150     0.4839 H       
@<TRIPOS>BOND
   1    1    2 ar
   2    1    6 ar
   3    1   11 1
   4    2    3 ar
   5    2    8 1
   6    3    4 ar
   7    3   12 1
   8    4    5 ar
   9    4   13 1
  10    5    6 ar
  11    5    7 1
  12    6   14 1
  13    7   15 1
  14    7   16 1
  15    7   17 1
  16    8    9 ar
  17    8   10 ar

#	End of record

