#	Name: ASD01910051
#	Creating user name:	WinNT
#	Creation time:	15. 06. 2019 19:55

#	Modifying user name:	WinNT
#	Modification time:	15. 06. 2019 19:55

#	Program:	/corina/corina34_cracker 3.40 0067  02.08.2006

@<TRIPOS>MOLECULE
ASD01910051
  45   48    0    0    0
SMALL
NO_CHARGES


@<TRIPOS>ATOM
   1 C1             0.3037     1.3952     0.8895 C.ar    
   2 C2             0.3192     0.0143     0.9088 C.ar    
   3 C3             1.1988    -0.6807     0.0989 C.ar    
   4 C4             2.0656     0.0037    -0.7328 C.ar    
   5 C5             2.0553     1.3858    -0.7570 C.ar    
   6 C6             1.1726     2.0865     0.0557 C.ar    
   7 N7             1.1592     3.4874     0.0340 N.pl3   
   8 C8             0.0537     4.2759    -0.0715 C.2     
   9 C9             0.4672     5.5705    -0.0546 C.2     
  10 C10            1.8697     5.5729     0.0650 C.2     
  11 N11            2.2797     4.3229     0.1230 N.2     
  12 N12           -1.2640     3.8348    -0.1781 N.am    
  13 C13           -2.2766     4.7238    -0.1491 C.2     
  14 C14           -3.6741     4.2560    -0.2621 C.ar    
  15 C15           -4.7253     5.1740    -0.2324 C.ar    
  16 C16           -6.0273     4.7307    -0.3383 C.ar    
  17 C17           -6.2924     3.3795    -0.4737 C.ar    
  18 C18           -5.2553     2.4642    -0.5034 C.ar    
  19 C19           -3.9483     2.8947    -0.4047 C.ar    
  20 C20            2.7361     6.7763     0.1213 C.ar    
  21 C21            4.1175     6.6383     0.2412 C.ar    
  22 C22            4.9186     7.7610     0.2926 C.ar    
  23 C23            4.3526     9.0214     0.2255 C.ar    
  24 C24            2.9819     9.1641     0.1065 C.ar    
  25 C25            2.1718     8.0482     0.0488 C.ar    
  26 O26           -2.0405     5.9104    -0.0300 O.2     
  27 Cl27           3.1442     2.2450    -1.8010 Cl      
  28 N28           -7.6920     2.9110    -0.5868 N.pl3   
  29 O29           -8.6071     3.7143    -0.5606 O.2     
  30 O30           -7.9285     1.7221    -0.7061 O.2     
  31 H31           -0.3867     1.9368     1.5191 H       
  32 H32           -0.3563    -0.5235     1.5575 H       
  33 H33            1.2089    -1.7605     0.1164 H       
  34 H34            2.7515    -0.5419    -1.3638 H       
  35 H35           -0.1671     6.4420    -0.1217 H       
  36 H36           -1.4523     2.8881    -0.2731 H       
  37 H37           -4.5197     6.2290    -0.1265 H       
  38 H38           -6.8415     5.4399    -0.3152 H       
  39 H39           -5.4691     1.4108    -0.6085 H       
  40 H40           -3.1396     2.1792    -0.4280 H       
  41 H41            4.5605     5.6548     0.2940 H       
  42 H42            5.9894     7.6553     0.3859 H       
  43 H43            4.9832     9.8972     0.2665 H       
  44 H44            2.5452    10.1505     0.0545 H       
  45 H45            1.1017     8.1608    -0.0441 H       
@<TRIPOS>BOND
   1    1    2 ar
   2    1    6 ar
   3    1   31 1
   4    2    3 ar
   5    2   32 1
   6    3    4 ar
   7    3   33 1
   8    4    5 ar
   9    4   34 1
  10    5    6 ar
  11    5   27 1
  12    6    7 1
  13    7    8 1
  14    7   11 1
  15    8    9 2
  16    8   12 1
  17    9   10 1
  18    9   35 1
  19   10   11 2
  20   10   20 1
  21   12   13 am
  22   12   36 1
  23   13   14 1
  24   13   26 2
  25   14   15 ar
  26   14   19 ar
  27   15   16 ar
  28   15   37 1
  29   16   17 ar
  30   16   38 1
  31   17   18 ar
  32   17   28 1
  33   18   19 ar
  34   18   39 1
  35   19   40 1
  36   20   21 ar
  37   20   25 ar
  38   21   22 ar
  39   21   41 1
  40   22   23 ar
  41   22   42 1
  42   23   24 ar
  43   23   43 1
  44   24   25 ar
  45   24   44 1
  46   25   45 1
  47   28   29 2
  48   28   30 2

#	End of record

