#	Name: ASD01510055
#	Creating user name:	WinNT
#	Creation time:	15. 06. 2019 19:21

#	Modifying user name:	WinNT
#	Modification time:	15. 06. 2019 19:21

#	Program:	/corina/corina34_cracker 3.40 0067  02.08.2006

@<TRIPOS>MOLECULE
ASD01510055
  46   48    0    0    0
SMALL
NO_CHARGES


@<TRIPOS>ATOM
   1 C1             0.0055     1.4074     0.0140 C.3     
   2 O2             0.0195    -0.0215     0.0078 O.3     
   3 C3             0.6372    -0.6358     1.0473 C.ar    
   4 N4             1.1973     0.0801     2.0165 N.ar    
   5 C5             1.8024    -0.5117     3.0349 C.ar    
   6 N6             1.8764    -1.8303     3.1323 N.ar    
   7 C7             1.3402    -2.6133     2.2022 C.ar    
   8 C8             0.6885    -2.0279     1.1168 C.ar    
   9 S9            -0.0389    -3.0222    -0.1429 S.3     
  10 C10           -1.6589    -3.2207     0.5211 C.ar    
  11 N11           -1.9557    -2.6534     1.6818 N.ar    
  12 C12           -3.1626    -2.7801     2.2120 C.ar    
  13 C13           -4.1219    -3.5152     1.5413 C.ar    
  14 C14           -3.7801    -4.1008     0.3213 C.ar    
  15 N15           -2.5523    -3.9290    -0.1549 N.ar    
  16 N16           -4.7132    -4.8488    -0.3878 N.am    
  17 C17           -4.4072    -5.3228    -1.6119 C.2     
  18 O18           -3.3555    -5.0195    -2.1340 O.2     
  19 C19           -5.3719    -6.2296    -2.3316 C.3     
  20 O20            1.4205    -3.9630     2.3097 O.3     
  21 C21            2.0993    -4.4833     3.4545 C.3     
  22 N22            2.3745     0.2705     4.0261 N.3     
  23 C23            2.9963    -0.5676     5.0677 C.3     
  24 C24            4.4784    -0.1494     5.1667 C.3     
  25 C25            4.4764     1.2863     4.5787 C.3     
  26 C26            3.4076     1.1663     3.4639 C.3     
  27 H27            1.0295     1.7808     0.0083 H       
  28 H28           -0.5183     1.7695    -0.8707 H       
  29 H29           -0.5055     1.7618     0.9092 H       
  30 H30           -3.3947    -2.3144     3.1584 H       
  31 H31           -5.1136    -3.6342     1.9522 H       
  32 H32           -5.5845    -5.0296    -0.0017 H       
  33 H33           -6.2537    -6.3879    -1.7109 H       
  34 H34           -5.6688    -5.7694    -3.2741 H       
  35 H35           -4.8908    -7.1872    -2.5306 H       
  36 H36            3.1296    -4.1274     3.4589 H       
  37 H37            1.5948    -4.1469     4.3602 H       
  38 H38            2.0915    -5.5727     3.4175 H       
  39 H39            2.4993    -0.4009     6.0234 H       
  40 H40            2.9255    -1.6190     4.7889 H       
  41 H41            4.8076    -0.1398     6.2057 H       
  42 H42            5.1060    -0.8100     4.5685 H       
  43 H43            4.1761     2.0158     5.3307 H       
  44 H44            5.4508     1.5380     4.1599 H       
  45 H45            3.8430     0.7271     2.5663 H       
  46 H46            2.9811     2.1442     3.2403 H       
@<TRIPOS>BOND
   1    1    2 1
   2    1   27 1
   3    1   28 1
   4    1   29 1
   5    2    3 1
   6    3    4 ar
   7    3    8 ar
   8    4    5 ar
   9    5    6 ar
  10    5   22 1
  11    6    7 ar
  12    7    8 ar
  13    7   20 1
  14    8    9 1
  15    9   10 1
  16   10   11 ar
  17   10   15 ar
  18   11   12 ar
  19   12   13 ar
  20   12   30 1
  21   13   14 ar
  22   13   31 1
  23   14   15 ar
  24   14   16 1
  25   16   17 am
  26   16   32 1
  27   17   18 2
  28   17   19 1
  29   19   33 1
  30   19   34 1
  31   19   35 1
  32   20   21 1
  33   21   36 1
  34   21   37 1
  35   21   38 1
  36   22   23 1
  37   22   26 1
  38   23   24 1
  39   23   39 1
  40   23   40 1
  41   24   25 1
  42   24   41 1
  43   24   42 1
  44   25   26 1
  45   25   43 1
  46   25   44 1
  47   26   45 1
  48   26   46 1

#	End of record

