#	Name: ASD01901510
#	Creating user name:	WinNT
#	Creation time:	15. 06. 2019 19:53

#	Modifying user name:	WinNT
#	Modification time:	15. 06. 2019 19:53

#	Program:	/corina/corina34_cracker 3.40 0067  02.08.2006

@<TRIPOS>MOLECULE
ASD01901510
  44   47    0    0    0
SMALL
NO_CHARGES


@<TRIPOS>ATOM
   1 C1            -0.0314     1.4113     0.0054 C.3     
   2 O2            -0.0125    -0.0175    -0.0073 O.3     
   3 C3             0.5943    -0.6167    -1.0642 C.ar    
   4 C4             1.1640     0.1519    -2.0641 C.ar    
   5 C5             1.7845    -0.4630    -3.1440 C.ar    
   6 N6             2.3593     0.3139    -4.1518 N.am    
   7 C7             3.4819    -0.1055    -4.7684 C.2     
   8 O8             4.0479    -1.1095    -4.3832 O.2     
   9 C9             4.0259     0.6573    -5.9157 C.ar    
  10 C10            5.1833     0.2155    -6.5524 C.ar    
  11 C11            5.6803     0.9400    -7.6247 C.ar    
  12 C12            5.0021     2.0812    -8.0227 C.ar    
  13 C13            3.8559     2.4622    -7.3429 C.ar    
  14 N14            3.4031     1.7534    -6.3321 N.ar    
  15 C15            1.8350    -1.8507    -3.2236 C.ar    
  16 C16            1.2698    -2.6225    -2.2316 C.ar    
  17 C17            0.6500    -2.0129    -1.1421 C.ar    
  18 C18            0.0468    -2.8414    -0.0711 C.2     
  19 N19           -0.5710    -2.4002     0.9958 N.2     
  20 O20           -0.9495    -3.3290     1.6775 O.3     
  21 C21           -0.6035    -4.4907     1.1012 C.2     
  22 N22            0.0278    -4.1902    -0.0185 N.2     
  23 C23           -0.8810    -5.8465     1.6182 C.ar    
  24 C24           -0.4518    -6.9691     0.9085 C.ar    
  25 C25           -0.7137    -8.2323     1.3969 C.ar    
  26 C26           -1.4009    -8.3898     2.5877 C.ar    
  27 C27           -1.8301    -7.2836     3.2978 C.ar    
  28 C28           -1.5699    -6.0113     2.8238 C.ar    
  29 F29           -1.9845    -4.9307     3.5206 F       
  30 H30            0.9914     1.7882     0.0025 H       
  31 H31           -0.5553     1.7756    -0.8782 H       
  32 H32           -0.5445     1.7599     0.9016 H       
  33 H33            1.1259     1.2296    -2.0050 H       
  34 H34            1.9506     1.1555    -4.4081 H       
  35 H35            5.6866    -0.6786    -6.2152 H       
  36 H36            6.5759     0.6225    -8.1380 H       
  37 H37            5.3634     2.6680    -8.8542 H       
  38 H38            3.3251     3.3512    -7.6502 H       
  39 H39            2.3182    -2.3246    -4.0653 H       
  40 H40            1.3107    -3.6998    -2.2963 H       
  41 H41            0.0841    -6.8490    -0.0214 H       
  42 H42           -0.3817    -9.1012     0.8480 H       
  43 H43           -1.6033    -9.3817     2.9641 H       
  44 H44           -2.3659    -7.4138     4.2264 H       
@<TRIPOS>BOND
   1    1    2 1
   2    1   30 1
   3    1   31 1
   4    1   32 1
   5    2    3 1
   6    3   17 ar
   7    3    4 ar
   8    4    5 ar
   9    4   33 1
  10    5    6 1
  11    5   15 ar
  12    6    7 am
  13    6   34 1
  14    7    8 2
  15    7    9 1
  16    9   14 ar
  17    9   10 ar
  18   10   11 ar
  19   10   35 1
  20   11   12 ar
  21   11   36 1
  22   12   13 ar
  23   12   37 1
  24   13   14 ar
  25   13   38 1
  26   15   16 ar
  27   15   39 1
  28   16   17 ar
  29   16   40 1
  30   17   18 1
  31   18   22 1
  32   18   19 2
  33   19   20 1
  34   20   21 1
  35   21   22 2
  36   21   23 1
  37   23   28 ar
  38   23   24 ar
  39   24   25 ar
  40   24   41 1
  41   25   26 ar
  42   25   42 1
  43   26   27 ar
  44   26   43 1
  45   27   28 ar
  46   27   44 1
  47   28   29 1

#	End of record

