#	Name: ASD05940043
#	Creating user name:	WinNT
#	Creation time:	15. 06. 2019 21:04

#	Modifying user name:	WinNT
#	Modification time:	15. 06. 2019 21:04

#	Program:	/corina/corina34_cracker 3.40 0067  02.08.2006

@<TRIPOS>MOLECULE
ASD05940043
  67   71    0    0    0
SMALL
NO_CHARGES


@<TRIPOS>ATOM
   1 N1            -0.0159     1.3192     0.0093 N.ar    
   2 C2             0.0021    -0.0041     0.0020 C.ar    
   3 N3             1.1312    -0.6916    -0.0120 N.ar    
   4 C4             2.3077    -0.0674    -0.0199 C.ar    
   5 C5             2.3332     1.3267    -0.0131 C.ar    
   6 C6             1.1160     2.0179     0.0022 C.ar    
   7 N7             3.4850    -0.7937    -0.0341 N.am    
   8 C8             4.6734    -0.1557    -0.0415 C.2     
   9 C9             4.7050     1.3351    -0.0348 C.2     
  10 N10            3.5408     2.0187    -0.0214 N.am    
  11 N11            1.0907     3.4041     0.0099 N.pl3   
  12 O12           -1.1746    -0.6758     0.0096 O.3     
  13 C13            3.4409    -2.2580    -0.0405 C.3     
  14 O14            5.7657     1.9276    -0.0414 O.2     
  15 C15           -2.3692     0.1082     0.0252 C.3     
  16 C16           -3.5870    -0.8179     0.0319 C.3     
  17 O17           -3.6099    -1.5660     1.2492 O.3     
  18 C18            3.4127    -2.7534    -1.4635 C.ar    
  19 C19            4.5986    -3.0160    -2.1253 C.ar    
  20 C20            2.2009    -2.9493    -2.1011 C.ar    
  21 C21            2.1693    -3.4033    -3.4041 C.ar    
  22 C22            3.3610    -3.6640    -4.0774 C.ar    
  23 C23            4.5787    -3.4695    -3.4287 C.ar    
  24 C24           -4.7140    -2.4668     1.3572 C.3     
  25 C25            3.3333    -4.1523    -5.4784 C.ar    
  26 C26            4.5250    -4.4130    -6.1517 C.ar    
  27 C27            4.4933    -4.8674    -7.4546 C.ar    
  28 C28            3.2815    -5.0641    -8.0918 C.ar    
  29 C29            2.0955    -4.8070    -7.4282 C.ar    
  30 C30            2.1153    -4.3573    -6.1234 C.ar    
  31 C31            4.3090    -7.5896    -8.6965 C.3     
  32 C32            4.7591    -8.8977    -9.3730 C.3     
  33 C33            3.8796    -9.0214   -10.6383 C.3     
  34 C34            3.4289    -7.5607   -10.8911 C.3     
  35 N35            3.2165    -7.0286    -9.5207 N.3     
  36 C36            3.2533    -5.5601    -9.5146 C.3     
  37 O37            5.7090    -0.7902    -0.0532 O.2     
  38 H38            3.5460     2.9887    -0.0172 H       
  39 H39            1.9218     3.9043     0.0047 H       
  40 H40            0.2420     3.8736     0.0205 H       
  41 H41            4.3242    -2.6503     0.4634 H       
  42 H42            2.5451    -2.5968     0.4799 H       
  43 H43           -2.3825     0.7324     0.9188 H       
  44 H44           -2.3994     0.7419    -0.8611 H       
  45 H45           -4.4967    -0.2225    -0.0458 H       
  46 H46           -3.5275    -1.5025    -0.8142 H       
  47 H47            5.5419    -2.8655    -1.6213 H       
  48 H48            1.2779    -2.7469    -1.5782 H       
  49 H49            1.2226    -3.5566    -3.9007 H       
  50 H50            5.5054    -3.6697    -3.9461 H       
  51 H51           -4.6592    -2.9963     2.3083 H       
  52 H52           -5.6470    -1.9056     1.3070 H       
  53 H53           -4.6778    -3.1856     0.5386 H       
  54 H54            5.4717    -4.2593    -5.6552 H       
  55 H55            5.4164    -5.0694    -7.9775 H       
  56 H56            1.1521    -4.9620    -7.9306 H       
  57 H57            1.1887    -4.1568    -5.6061 H       
  58 H58            3.9455    -7.7979    -7.6902 H       
  59 H59            5.1415    -6.8872    -8.6555 H       
  60 H60            5.8120    -8.8383    -9.6484 H       
  61 H61            4.5882    -9.7452    -8.7091 H       
  62 H62            4.4637    -9.3958   -11.4790 H       
  63 H63            3.0192    -9.6632   -10.4488 H       
  64 H64            4.2103    -7.0004   -11.4045 H       
  65 H65            2.5000    -7.5379   -11.4609 H       
  66 H66            2.3671    -5.1723   -10.0171 H       
  67 H67            4.1464    -5.2168   -10.0368 H       
@<TRIPOS>BOND
   1    1    2 ar
   2    1    6 ar
   3    2    3 ar
   4    2   12 1
   5    3    4 ar
   6    4    5 ar
   7    4    7 1
   8    5    6 ar
   9    5   10 1
  10    6   11 1
  11    7    8 am
  12    7   13 1
  13    8    9 1
  14    8   37 2
  15    9   10 am
  16    9   14 2
  17   10   38 1
  18   11   39 1
  19   11   40 1
  20   12   15 1
  21   13   18 1
  22   13   41 1
  23   13   42 1
  24   15   16 1
  25   15   43 1
  26   15   44 1
  27   16   17 1
  28   16   45 1
  29   16   46 1
  30   17   24 1
  31   18   19 ar
  32   18   20 ar
  33   19   23 ar
  34   19   47 1
  35   20   21 ar
  36   20   48 1
  37   21   22 ar
  38   21   49 1
  39   22   23 ar
  40   22   25 1
  41   23   50 1
  42   24   51 1
  43   24   52 1
  44   24   53 1
  45   25   26 ar
  46   25   30 ar
  47   26   27 ar
  48   26   54 1
  49   27   28 ar
  50   27   55 1
  51   28   29 ar
  52   28   36 1
  53   29   30 ar
  54   29   56 1
  55   30   57 1
  56   31   32 1
  57   31   35 1
  58   31   58 1
  59   31   59 1
  60   32   33 1
  61   32   60 1
  62   32   61 1
  63   33   34 1
  64   33   62 1
  65   33   63 1
  66   34   35 1
  67   34   64 1
  68   34   65 1
  69   35   36 1
  70   36   66 1
  71   36   67 1

#	End of record

