#	Name: ASD05860007
#	Creating user name:	WinNT
#	Creation time:	15. 06. 2019 21:04

#	Modifying user name:	WinNT
#	Modification time:	15. 06. 2019 21:04

#	Program:	/corina/corina34_cracker 3.40 0067  02.08.2006

@<TRIPOS>MOLECULE
ASD05860007
 227  230    0    0    0
SMALL
NO_CHARGES


@<TRIPOS>ATOM
   1 N1            -0.0178     1.4648     0.0101 N.3     
   2 C2             0.0021    -0.0041     0.0020 C.3     
   3 C3             0.7074    -0.4901    -1.2379 C.2     
   4 O4             1.4532     0.2518    -1.8415 O.2     
   5 C5             0.7421    -0.5109     1.2415 C.3     
   6 C6            -0.0416    -0.1236     2.4973 C.3     
   7 C7             0.6984    -0.6305     3.7368 C.3     
   8 N8            -0.0520    -0.2597     4.9391 N.pl3   
   9 C9             0.4224    -0.6106     6.1810 C.2     
  10 N10           -0.2818    -0.2626     7.3093 N.pl3   
  11 N11            1.5396    -1.2731     6.2885 N.2     
  12 N12            0.5096    -1.7492    -1.6760 N.am    
  13 C13            1.1953    -2.2216    -2.8813 C.3     
  14 C14            0.8056    -3.6518    -3.1530 C.2     
  15 O15            0.0313    -4.2204    -2.4127 O.2     
  16 N16            1.3175    -4.2989    -4.2186 N.am    
  17 C17            0.9386    -5.6892    -4.4827 C.3     
  18 C18            1.1055    -5.9851    -5.9510 C.2     
  19 O19            1.5018    -5.1199    -6.7027 O.2     
  20 C20            1.8343    -6.6253    -3.6688 C.3     
  21 C21            1.5732    -6.4112    -2.1766 C.3     
  22 C22            2.4689    -7.3473    -1.3626 C.3     
  23 N23            2.2189    -7.1422     0.0662 N.pl3   
  24 C24            2.9127    -7.8776     0.9979 C.2     
  25 N25            2.6782    -7.6851     2.3389 N.pl3   
  26 N26            3.7929    -8.7571     0.6100 N.2     
  27 N27            0.8142    -7.2113    -6.4286 N.am    
  28 C28            0.9765    -7.4989    -7.8559 C.3     
  29 C29            1.1948    -8.9775    -8.0488 C.2     
  30 O30            1.2131    -9.7181    -7.0885 O.2     
  31 C31           -0.2830    -7.0668    -8.6096 C.3     
  32 C32           -0.4338    -5.5701    -8.5192 C.2     
  33 C33           -1.1693    -4.8944    -7.6222 C.2     
  34 C34            0.1994    -4.5763    -9.3894 C.ar    
  35 C35           -0.2334    -3.3210    -8.9251 C.ar    
  36 C36            1.0647    -4.6543   -10.4825 C.ar    
  37 N37           -1.0635    -3.5495    -7.8506 N.pl3   
  38 C38            0.2073    -2.1679    -9.5668 C.ar    
  39 C39            1.4871    -3.5090   -11.0962 C.ar    
  40 C40            1.0586    -2.2679   -10.6451 C.ar    
  41 N41            1.3697    -9.4769    -9.2883 N.am    
  42 C42            1.5819   -10.9142    -9.4758 C.3     
  43 C43            1.1472   -11.3094   -10.8635 C.2     
  44 O44            0.7037   -10.4728   -11.6214 O.2     
  45 C45            3.0661   -11.2385    -9.2946 C.3     
  46 C46            3.4776   -10.9538    -7.8487 C.3     
  47 C47            4.9395   -11.2732    -7.6702 C.2     
  48 N48            5.5258   -11.0982    -6.4693 N.am    
  49 O49            5.5884   -11.6877    -8.6072 O.2     
  50 N50            1.2512   -12.5926   -11.2625 N.am    
  51 C51            0.8285   -12.9768   -12.6115 C.3     
  52 C52            1.5669   -14.2207   -13.0341 C.2     
  53 O53            2.3673   -14.7356   -12.2824 O.2     
  54 C54           -0.6767   -13.2509   -12.6157 C.3     
  55 C55           -1.0071   -14.2991   -11.5512 C.3     
  56 C56           -1.4318   -11.9562   -12.3084 C.3     
  57 N57            1.3377   -14.7610   -14.2474 N.am    
  58 C58            2.0555   -15.9702   -14.6582 C.3     
  59 C59            1.2473   -16.7061   -15.6956 C.2     
  60 O60            0.1771   -16.2640   -16.0563 O.2     
  61 C61            3.4121   -15.5820   -15.2496 C.3     
  62 C62            4.2667   -14.9558   -14.1779 C.2     
  63 C63            4.3998   -13.6436   -13.9279 C.2     
  64 C64            5.1047   -15.6638   -13.2072 C.ar    
  65 C65            5.7085   -14.6693   -12.4165 C.ar    
  66 C66            5.3771   -17.0109   -12.9602 C.ar    
  67 N67            5.2591   -13.4532   -12.8802 N.pl3   
  68 C68            6.5757   -15.0438   -11.3951 C.ar    
  69 C69            6.2299   -17.3563   -11.9503 C.ar    
  70 C70            6.8325   -16.3784   -11.1706 C.ar    
  71 N71            1.7137   -17.8556   -16.2226 N.am    
  72 C72            0.9280   -18.5709   -17.2311 C.3     
  73 C73            1.6664   -19.8149   -17.6536 C.2     
  74 O74            2.7429   -20.0779   -17.1609 O.2     
  75 N75            1.1304   -20.6350   -18.5791 N.am    
  76 C76            1.8482   -21.8443   -18.9899 C.3     
  77 C77            0.8640   -22.8606   -19.5091 C.2     
  78 O78           -0.3203   -22.6005   -19.5335 O.2     
  79 C79            2.8487   -21.4935   -20.0930 C.3     
  80 C80            3.9207   -20.5579   -19.5305 C.3     
  81 C81            4.7344   -21.2963   -18.4658 C.3     
  82 C82            4.8488   -20.1079   -20.6606 C.3     
  83 N83            1.3000   -24.0587   -19.9462 N.am    
  84 C84            0.3433   -25.0467   -20.4508 C.3     
  85 C85            1.0423   -25.9817   -21.4038 C.2     
  86 O86            2.2234   -25.8370   -21.6383 O.2     
  87 C87           -0.2293   -25.8469   -19.2792 C.3     
  88 N88            0.3550   -26.9788   -21.9954 N.am    
  89 C89            1.0346   -27.8877   -22.9218 C.3     
  90 C90            0.3000   -29.2028   -22.9647 C.2     
  91 O91           -0.6934   -29.3649   -22.2881 O.2     
  92 C92            1.0547   -27.2688   -24.3209 C.3     
  93 C93            1.9056   -25.9974   -24.3040 C.3     
  94 C94            1.9256   -25.3785   -25.7031 C.3     
  95 C95            2.7766   -24.1071   -25.6862 C.3     
  96 N96            2.7958   -23.5129   -27.0295 N.3     
  97 N97            0.7470   -30.1989   -23.7550 N.am    
  98 C98            0.0329   -31.4774   -23.7967 C.3     
  99 C99           -1.0962   -31.3899   -24.7910 C.2     
 100 O100          -1.2857   -30.3609   -25.4044 O.2     
 101 C101           0.9982   -32.5873   -24.2176 C.3     
 102 C102           2.0754   -32.7602   -23.1449 C.3     
 103 C103           3.0408   -33.8701   -23.5658 C.3     
 104 N104           4.0722   -34.0356   -22.5387 N.pl3   
 105 C105           5.0566   -34.9819   -22.6992 C.2     
 106 N106           5.0731   -35.7727   -23.8237 N.pl3   
 107 N107           5.9743   -35.1292   -21.7854 N.2     
 108 N108          -1.8954   -32.4551   -24.9987 N.am    
 109 C109          -2.9929   -32.3700   -25.9652 C.3     
 110 C110          -2.4712   -32.6745   -27.3459 C.2     
 111 O111          -1.3031   -32.9356   -27.5059 O.2     
 112 C112          -4.0781   -33.3832   -25.5952 C.3     
 113 S113          -4.8090   -32.9301   -23.9980 S.3     
 114 H114           0.9191     1.8392     0.0032 H       
 115 H115          -0.5563     1.8234    -0.7642 H       
 116 H116          -1.0205    -0.3814     0.0098 H       
 117 H117           0.8346    -1.5958     1.1912 H       
 118 H118           1.7350    -0.0630     1.2804 H       
 119 H119          -0.1341     0.9613     2.5476 H       
 120 H120          -1.0345    -0.5716     2.4584 H       
 121 H121           0.7909    -1.7154     3.6864 H       
 122 H122           1.6914    -0.1825     3.7756 H       
 123 H123          -0.8834     0.2334     4.8591 H       
 124 H124          -1.1133     0.2305     7.2293 H       
 125 H125           0.0528    -0.5101     8.1855 H       
 126 H126           1.8743    -1.5207     7.1646 H       
 127 H127          -0.0869    -2.3426    -1.1932 H       
 128 H128           0.9091    -1.5997    -3.7295 H       
 129 H129           2.2735    -2.1607    -2.7334 H       
 130 H130           1.9367    -3.8442    -4.8107 H       
 131 H131          -0.1021    -5.8428    -4.1971 H       
 132 H132           1.6127    -7.6597    -3.9317 H       
 133 H133           2.8799    -6.4104    -3.8893 H       
 134 H134           1.7948    -5.3768    -1.9137 H       
 135 H135           0.5276    -6.6261    -1.9561 H       
 136 H136           2.2473    -8.3816    -1.6255 H       
 137 H137           3.5145    -7.1323    -1.5831 H       
 138 H138           1.5639    -6.4876     0.3550 H       
 139 H139           2.0232    -7.0305     2.6276 H       
 140 H140           3.1677    -8.2039     2.9962 H       
 141 H141           4.2824    -9.2760     1.2673 H       
 142 H142           0.4972    -7.9033    -5.8274 H       
 143 H143           1.8365    -6.9513    -8.2415 H       
 144 H144          -0.1992    -7.3610    -9.6558 H       
 145 H145          -1.1549    -7.5473    -8.1658 H       
 146 H146          -1.7576    -5.3456    -6.8369 H       
 147 H147           1.3992    -5.6164   -10.8414 H       
 148 H148          -1.5076    -2.8597    -7.3330 H       
 149 H149          -0.1172    -1.1977    -9.2209 H       
 150 H150           2.1564    -3.5699   -11.9417 H       
 151 H151           1.3993    -1.3717   -11.1422 H       
 152 H152           1.3551    -8.8845   -10.0563 H       
 153 H153           0.9969   -11.4668    -8.7406 H       
 154 H154           3.2384   -12.2908    -9.5208 H       
 155 H155           3.6582   -10.6201    -9.9693 H       
 156 H156           3.3053    -9.9015    -7.6224 H       
 157 H157           2.8855   -11.5722    -7.1740 H       
 158 H158           5.0067   -10.7666    -5.7199 H       
 159 H159           6.4667   -11.3038    -6.3544 H       
 160 H160           1.6058   -13.2617   -10.6563 H       
 161 H161           1.0524   -12.1676   -13.3067 H       
 162 H162          -0.9757   -13.6219   -13.5961 H       
 163 H163          -0.7081   -13.9281   -10.5709 H       
 164 H164          -2.0795   -14.4944   -11.5542 H       
 165 H165          -0.4692   -15.2214   -11.7702 H       
 166 H166          -1.1328   -11.5852   -11.3280 H       
 167 H167          -1.1963   -11.2095   -13.0667 H       
 168 H168          -2.5041   -12.1515   -12.3114 H       
 169 H169           0.6975   -14.3492   -14.8486 H       
 170 H170           2.2077   -16.6143   -13.7921 H       
 171 H171           3.9082   -16.4723   -15.6360 H       
 172 H172           3.2643   -14.8679   -16.0598 H       
 173 H173           3.9026   -12.8550   -14.4731 H       
 174 H174           4.9150   -17.7769   -13.5652 H       
 175 H175           5.5143   -12.5901   -12.5186 H       
 176 H176           7.0463   -14.2907   -10.7805 H       
 177 H177           6.4402   -18.3984   -11.7597 H       
 178 H178           7.5063   -16.6671   -10.3774 H       
 179 H179           2.5697   -18.2092   -15.9341 H       
 180 H180          -0.0384   -18.8475   -16.8097 H       
 181 H181           0.7759   -17.9269   -18.0972 H       
 182 H182           0.2694   -20.4246   -18.9733 H       
 183 H183           2.3812   -22.2587   -18.1342 H       
 184 H184           3.3190   -22.4056   -20.4604 H       
 185 H185           2.3276   -20.9980   -20.9121 H       
 186 H186           3.4436   -19.6859   -19.0832 H       
 187 H187           5.4981   -20.6298   -18.0651 H       
 188 H188           4.0732   -21.6169   -17.6607 H       
 189 H189           5.2116   -22.1683   -18.9131 H       
 190 H190           4.2691   -19.5818   -21.4191 H       
 191 H191           5.6125   -19.4414   -20.2598 H       
 192 H192           5.3260   -20.9799   -21.1078 H       
 193 H193           2.2472   -24.2667   -19.9266 H       
 194 H194          -0.4663   -24.5355   -20.9717 H       
 195 H195           0.5803   -26.3582   -18.7583 H       
 196 H196          -0.7349   -25.1707   -18.5899 H       
 197 H197          -0.9411   -26.5821   -19.6547 H       
 198 H198          -0.5896   -27.0945   -21.8078 H       
 199 H199           2.0574   -28.0537   -22.5832 H       
 200 H200           1.4802   -27.9815   -25.0274 H       
 201 H201           0.0372   -27.0210   -24.6231 H       
 202 H202           1.4801   -25.2847   -23.5975 H       
 203 H203           2.9231   -26.2452   -24.0017 H       
 204 H204           2.3512   -26.0912   -26.4096 H       
 205 H205           0.9081   -25.1307   -26.0054 H       
 206 H206           2.3511   -23.3944   -24.9797 H       
 207 H207           3.7941   -24.3549   -25.3839 H       
 208 H208           3.3519   -22.6711   -27.0446 H       
 209 H209           3.1261   -24.1767   -27.7139 H       
 210 H210           1.5415   -30.0693   -24.2961 H       
 211 H211          -0.3696   -31.7012   -22.8088 H       
 212 H212           0.4489   -33.5214   -24.3348 H       
 213 H213           1.4678   -32.3206   -25.1644 H       
 214 H214           2.6247   -31.8260   -23.0277 H       
 215 H215           1.6058   -33.0268   -22.1981 H       
 216 H216           2.4915   -34.8042   -23.6830 H       
 217 H217           3.5104   -33.6034   -24.5126 H       
 218 H218           4.0606   -33.4777   -21.7453 H       
 219 H219           4.3901   -35.6631   -24.5038 H       
 220 H220           5.7676   -36.4403   -23.9370 H       
 221 H221           6.6688   -35.7968   -21.8987 H       
 222 H222          -1.7438   -33.2781   -24.5081 H       
 223 H223          -3.4139   -31.3647   -25.9494 H       
 224 H224          -3.1420   -32.6592   -28.1922 H       
 225 H225          -4.8524   -33.3827   -26.3624 H       
 226 H226          -3.6376   -34.3777   -25.5242 H       
 227 H227          -5.7301   -33.8908   -23.8034 H       
@<TRIPOS>BOND
   1    1    2 1
   2    1  114 1
   3    1  115 1
   4    2    5 1
   5    2    3 1
   6    2  116 1
   7    3   12 am
   8    3    4 2
   9    5    6 1
  10    5  117 1
  11    5  118 1
  12    6    7 1
  13    6  119 1
  14    6  120 1
  15    7    8 1
  16    7  121 1
  17    7  122 1
  18    8    9 1
  19    8  123 1
  20    9   11 2
  21    9   10 1
  22   10  124 1
  23   10  125 1
  24   11  126 1
  25   12   13 1
  26   12  127 1
  27   13   14 1
  28   13  128 1
  29   13  129 1
  30   14   15 2
  31   14   16 am
  32   16   17 1
  33   16  130 1
  34   17   18 1
  35   17   20 1
  36   17  131 1
  37   18   19 2
  38   18   27 am
  39   20   21 1
  40   20  132 1
  41   20  133 1
  42   21   22 1
  43   21  134 1
  44   21  135 1
  45   22   23 1
  46   22  136 1
  47   22  137 1
  48   23   24 1
  49   23  138 1
  50   24   25 1
  51   24   26 2
  52   25  139 1
  53   25  140 1
  54   26  141 1
  55   27   28 1
  56   27  142 1
  57   28   29 1
  58   28   31 1
  59   28  143 1
  60   29   41 am
  61   29   30 2
  62   31   32 1
  63   31  144 1
  64   31  145 1
  65   32   33 2
  66   32   34 1
  67   33   37 1
  68   33  146 1
  69   34   35 ar
  70   34   36 ar
  71   35   37 1
  72   35   38 ar
  73   36   39 ar
  74   36  147 1
  75   37  148 1
  76   38   40 ar
  77   38  149 1
  78   39   40 ar
  79   39  150 1
  80   40  151 1
  81   41   42 1
  82   41  152 1
  83   42   43 1
  84   42   45 1
  85   42  153 1
  86   43   44 2
  87   43   50 am
  88   45   46 1
  89   45  154 1
  90   45  155 1
  91   46   47 1
  92   46  156 1
  93   46  157 1
  94   47   49 2
  95   47   48 am
  96   48  158 1
  97   48  159 1
  98   50   51 1
  99   50  160 1
 100   51   54 1
 101   51   52 1
 102   51  161 1
 103   52   53 2
 104   52   57 am
 105   54   55 1
 106   54   56 1
 107   54  162 1
 108   55  163 1
 109   55  164 1
 110   55  165 1
 111   56  166 1
 112   56  167 1
 113   56  168 1
 114   57   58 1
 115   57  169 1
 116   58   59 1
 117   58   61 1
 118   58  170 1
 119   59   71 am
 120   59   60 2
 121   61   62 1
 122   61  171 1
 123   61  172 1
 124   62   63 2
 125   62   64 1
 126   63   67 1
 127   63  173 1
 128   64   65 ar
 129   64   66 ar
 130   65   67 1
 131   65   68 ar
 132   66   69 ar
 133   66  174 1
 134   67  175 1
 135   68   70 ar
 136   68  176 1
 137   69   70 ar
 138   69  177 1
 139   70  178 1
 140   71   72 1
 141   71  179 1
 142   72   73 1
 143   72  180 1
 144   72  181 1
 145   73   75 am
 146   73   74 2
 147   75   76 1
 148   75  182 1
 149   76   79 1
 150   76   77 1
 151   76  183 1
 152   77   78 2
 153   77   83 am
 154   79   80 1
 155   79  184 1
 156   79  185 1
 157   80   81 1
 158   80   82 1
 159   80  186 1
 160   81  187 1
 161   81  188 1
 162   81  189 1
 163   82  190 1
 164   82  191 1
 165   82  192 1
 166   83   84 1
 167   83  193 1
 168   84   85 1
 169   84   87 1
 170   84  194 1
 171   85   86 2
 172   85   88 am
 173   87  195 1
 174   87  196 1
 175   87  197 1
 176   88   89 1
 177   88  198 1
 178   89   90 1
 179   89   92 1
 180   89  199 1
 181   90   97 am
 182   90   91 2
 183   92   93 1
 184   92  200 1
 185   92  201 1
 186   93   94 1
 187   93  202 1
 188   93  203 1
 189   94   95 1
 190   94  204 1
 191   94  205 1
 192   95   96 1
 193   95  206 1
 194   95  207 1
 195   96  208 1
 196   96  209 1
 197   97   98 1
 198   97  210 1
 199   98   99 1
 200   98  101 1
 201   98  211 1
 202   99  100 2
 203   99  108 am
 204  101  102 1
 205  101  212 1
 206  101  213 1
 207  102  103 1
 208  102  214 1
 209  102  215 1
 210  103  104 1
 211  103  216 1
 212  103  217 1
 213  104  105 1
 214  104  218 1
 215  105  107 2
 216  105  106 1
 217  106  219 1
 218  106  220 1
 219  107  221 1
 220  108  109 1
 221  108  222 1
 222  109  112 1
 223  109  110 1
 224  109  223 1
 225  110  111 2
 226  110  224 1
 227  112  113 1
 228  112  225 1
 229  112  226 1
 230  113  227 1

#	End of record

