#	Name: ASD00071086
#	Creating user name:	WinNT
#	Creation time:	15. 06. 2019 18:30

#	Modifying user name:	WinNT
#	Modification time:	15. 06. 2019 18:30

#	Program:	/corina/corina34_cracker 3.40 0067  02.08.2006

@<TRIPOS>MOLECULE
ASD00071086
  36   38    0    0    0
SMALL
NO_CHARGES


@<TRIPOS>ATOM
   1 N1            -0.0161     1.3349     0.0094 N.am    
   2 C2             0.0021    -0.0041     0.0020 C.2     
   3 N3             1.1392    -0.7228    -0.0127 N.am    
   4 C4             2.4330    -0.0190    -0.0214 C.3     
   5 C5             2.3893     1.4916    -0.0128 C.ar    
   6 C6             3.5435     2.2404    -0.0194 C.ar    
   7 C7             3.4649     3.6229    -0.0108 C.ar    
   8 C8             2.2303     4.2461     0.0048 C.ar    
   9 C9             1.0702     3.4965     0.0115 C.ar    
  10 C10            1.1435     2.1097     0.0025 C.ar    
  11 S11           -1.4917    -0.8404     0.0124 S.2     
  12 C12            1.0913    -2.1870    -0.0197 C.3     
  13 C13            1.0609    -2.6819    -1.4428 C.ar    
  14 C14            2.2351    -2.7516    -2.1789 C.ar    
  15 C15            2.2038    -3.2075    -3.4885 C.ar    
  16 C16            1.0042    -3.5909    -4.0569 C.ar    
  17 C17           -0.1643    -3.5200    -3.3215 C.ar    
  18 C18           -0.1348    -3.0717    -2.0137 C.ar    
  19 O19            3.4137    -2.3735    -1.6177 O.3     
  20 C20            4.5821    -2.4719    -2.4344 C.3     
  21 H21           -0.8746     1.7864     0.0158 H       
  22 H22            2.9984    -0.3439     0.8521 H       
  23 H23            2.9815    -0.3344    -0.9089 H       
  24 H24            4.5067     1.7521    -0.0309 H       
  25 H25            4.3682     4.2148    -0.0159 H       
  26 H26            2.1731     5.3245     0.0122 H       
  27 H27            0.1084     3.9877     0.0240 H       
  28 H28            1.9739    -2.5818     0.4835 H       
  29 H29            0.1950    -2.5236     0.5013 H       
  30 H30            3.1163    -3.2624    -4.0636 H       
  31 H31            0.9794    -3.9460    -5.0765 H       
  32 H32           -1.1011    -3.8195    -3.7678 H       
  33 H33           -1.0483    -3.0218    -1.4397 H       
  34 H34            4.7236    -3.5078    -2.7429 H       
  35 H35            4.4628    -1.8432    -3.3168 H       
  36 H36            5.4513    -2.1400    -1.8666 H       
@<TRIPOS>BOND
   1    1    2 am
   2    1   10 1
   3    1   21 1
   4    2    3 am
   5    2   11 2
   6    3    4 1
   7    3   12 1
   8    4    5 1
   9    4   22 1
  10    4   23 1
  11    5    6 ar
  12    5   10 ar
  13    6    7 ar
  14    6   24 1
  15    7    8 ar
  16    7   25 1
  17    8    9 ar
  18    8   26 1
  19    9   10 ar
  20    9   27 1
  21   12   13 1
  22   12   28 1
  23   12   29 1
  24   13   14 ar
  25   13   18 ar
  26   14   15 ar
  27   14   19 1
  28   15   16 ar
  29   15   30 1
  30   16   17 ar
  31   16   31 1
  32   17   18 ar
  33   17   32 1
  34   18   33 1
  35   19   20 1
  36   20   34 1
  37   20   35 1
  38   20   36 1

#	End of record

