#	Name: ASD01916518
#	Creating user name:	WinNT
#	Creation time:	15. 06. 2019 20:07

#	Modifying user name:	WinNT
#	Modification time:	15. 06. 2019 20:07

#	Program:	/corina/corina34_cracker 3.40 0067  02.08.2006

@<TRIPOS>MOLECULE
ASD01916518
  47   50    0    0    0
SMALL
NO_CHARGES


@<TRIPOS>ATOM
   1 C1            -0.0171     1.4100     0.0098 C.ar    
   2 C2             0.0021    -0.0041     0.0020 C.ar    
   3 C3            -1.1912    -0.7256     0.0414 C.ar    
   4 C4            -2.3838    -0.0642     0.0741 C.ar    
   5 C5            -2.4215     1.3385     0.0659 C.ar    
   6 C6            -1.2406     2.0764     0.0357 C.ar    
   7 N7             1.1598     2.0754     0.0021 N.2     
   8 C8             2.3197     1.4679    -0.0397 C.2     
   9 N9             2.4200     0.1197    -0.1575 N.am    
  10 C10            1.3103    -0.6627    -0.0625 C.2     
  11 C11           -3.6829     2.0160     0.0891 C.1     
  12 O12            1.4016    -1.8764    -0.0324 O.2     
  13 C13            3.5357     2.3453     0.1020 C.3     
  14 C14            4.7921     1.6928    -0.4308 C.3     
  15 C15            4.8965     0.2363    -0.0271 C.3     
  16 C16            3.6795    -0.5617    -0.4368 C.3     
  17 C17           -4.7170     2.5714     0.1081 C.1     
  18 C18           -5.9784     3.2489     0.1314 C.ar    
  19 N19           -6.0140     4.5779     0.1235 N.ar    
  20 C20           -7.1537     5.2374     0.1438 C.ar    
  21 C21           -8.3630     4.5665     0.1741 C.ar    
  22 C22           -8.3730     3.1782     0.1833 C.ar    
  23 C23           -7.1632     2.5084     0.1563 C.ar    
  24 C24            4.7904     1.7857    -1.9580 C.3     
  25 C25            6.0097     2.4460     0.1086 C.3     
  26 C26           -3.6712    -0.8463     0.1191 C.3     
  27 H27           -1.1709    -1.8054     0.0456 H       
  28 H28           -1.2730     3.1559     0.0324 H       
  29 H29            3.3643     3.2746    -0.4412 H       
  30 H30            3.6804     2.5783     1.1569 H       
  31 H31            5.7787    -0.1983    -0.4972 H       
  32 H32            5.0098     0.1770     1.0554 H       
  33 H33            3.6887    -1.5120     0.0969 H       
  34 H34            3.7379    -0.7638    -1.5063 H       
  35 H35           -7.1440     6.3173     0.1369 H       
  36 H36           -9.2915     5.1180     0.1909 H       
  37 H37           -9.3051     2.6332     0.2069 H       
  38 H38           -7.1344     1.4288     0.1625 H       
  39 H39            4.7638     2.8332    -2.2583 H       
  40 H40            5.6928     1.3177    -2.3515 H       
  41 H41            3.9134     1.2723    -2.3523 H       
  42 H42            6.0080     2.4066     1.1979 H       
  43 H43            6.9207     1.9826    -0.2703 H       
  44 H44            5.9679     3.4852    -0.2175 H       
  45 H45           -3.9498    -1.0283     1.1570 H       
  46 H46           -4.4593    -0.2774    -0.3742 H       
  47 H47           -3.5357    -1.7989    -0.3931 H       
@<TRIPOS>BOND
   1    1    2 ar
   2    1    7 1
   3    1    6 ar
   4    2    3 ar
   5    2   10 1
   6    3    4 ar
   7    3   27 1
   8    4    5 ar
   9    4   26 1
  10    5    6 ar
  11    5   11 1
  12    6   28 1
  13    7    8 2
  14    8    9 1
  15    8   13 1
  16    9   10 am
  17    9   16 1
  18   10   12 2
  19   11   17 3
  20   13   14 1
  21   13   29 1
  22   13   30 1
  23   14   15 1
  24   14   24 1
  25   14   25 1
  26   15   16 1
  27   15   31 1
  28   15   32 1
  29   16   33 1
  30   16   34 1
  31   17   18 1
  32   18   19 ar
  33   18   23 ar
  34   19   20 ar
  35   20   21 ar
  36   20   35 1
  37   21   22 ar
  38   21   36 1
  39   22   23 ar
  40   22   37 1
  41   23   38 1
  42   24   39 1
  43   24   40 1
  44   24   41 1
  45   25   42 1
  46   25   43 1
  47   25   44 1
  48   26   45 1
  49   26   46 1
  50   26   47 1

#	End of record

