#	Name: ASD01884440
#	Creating user name:	WinNT
#	Creation time:	15. 06. 2019 19:48

#	Modifying user name:	WinNT
#	Modification time:	15. 06. 2019 19:48

#	Program:	/corina/corina34_cracker 3.40 0067  02.08.2006

@<TRIPOS>MOLECULE
ASD01884440
  36   38    0    0    0
SMALL
NO_CHARGES


@<TRIPOS>ATOM
   1 C1            -0.0164     1.3575     0.0095 C.2     
   2 C2             0.0021    -0.0041     0.0020 C.2     
   3 C3             1.2441    -0.6750    -0.0134 C.2     
   4 C4             2.4025     0.0467    -0.0206 C.2     
   5 N5             2.3701     1.4021    -0.0130 N.am    
   6 C6             1.1988     2.0651     0.0017 C.2     
   7 C7             1.2900    -2.1582    -0.0214 C.ar    
   8 C8             3.6267     2.1552    -0.0205 C.3     
   9 O9             1.1913     3.2854     0.0079 O.2     
  10 C10            4.0446     2.4210    -1.4438 C.ar    
  11 C11            3.6208     3.5700    -2.0852 C.ar    
  12 C12            4.0037     3.8144    -3.3905 C.ar    
  13 C13            4.8113     2.9088    -4.0553 C.ar    
  14 C14            5.2351     1.7592    -3.4129 C.ar    
  15 C15            4.8562     1.5186    -2.1056 C.ar    
  16 C16            1.8314    -2.8463     1.0627 C.ar    
  17 C17            0.7866    -2.8667    -1.1098 C.ar    
  18 C18            0.8319    -4.2509    -1.1110 C.ar    
  19 C19            1.3774    -4.9288    -0.0292 C.ar    
  20 C20            1.8726    -4.2264     1.0532 C.ar    
  21 Cl21           5.2922     3.2148    -5.6951 Cl      
  22 O22            0.3418    -4.9458    -2.1712 O.3     
  23 H23           -0.9563     1.8894     0.0168 H       
  24 H24           -0.9217    -0.5636     0.0082 H       
  25 H25            3.3529    -0.4662    -0.0321 H       
  26 H26            3.4857     3.1026     0.4997 H       
  27 H27            4.4005     1.5758     0.4831 H       
  28 H28            2.9900     4.2766    -1.5663 H       
  29 H29            3.6722     4.7118    -3.8916 H       
  30 H30            5.8656     1.0519    -3.9313 H       
  31 H31            5.1870     0.6212    -1.6040 H       
  32 H32            2.2192    -2.3002     1.9099 H       
  33 H33            0.3619    -2.3381    -1.9504 H       
  34 H34            1.4112    -6.0083    -0.0316 H       
  35 H35            2.2963    -4.7583     1.8922 H       
  36 H36            0.9948    -5.1206    -2.8627 H       
@<TRIPOS>BOND
   1    1    2 2
   2    1    6 1
   3    1   23 1
   4    2    3 1
   5    2   24 1
   6    3    4 2
   7    3    7 1
   8    4    5 1
   9    4   25 1
  10    5    6 am
  11    5    8 1
  12    6    9 2
  13    7   16 ar
  14    7   17 ar
  15    8   10 1
  16    8   26 1
  17    8   27 1
  18   10   11 ar
  19   10   15 ar
  20   11   12 ar
  21   11   28 1
  22   12   13 ar
  23   12   29 1
  24   13   14 ar
  25   13   21 1
  26   14   15 ar
  27   14   30 1
  28   15   31 1
  29   16   20 ar
  30   16   32 1
  31   17   18 ar
  32   17   33 1
  33   18   19 ar
  34   18   22 1
  35   19   20 ar
  36   19   34 1
  37   20   35 1
  38   22   36 1

#	End of record

