#	Name: ASD03091621
#	Creating user name:	WinNT
#	Creation time:	15. 06. 2019 20:31

#	Modifying user name:	WinNT
#	Modification time:	15. 06. 2019 20:31

#	Program:	/corina/corina34_cracker 3.40 0067  02.08.2006

@<TRIPOS>MOLECULE
ASD03091621
  20   21    0    0    0
SMALL
NO_CHARGES


@<TRIPOS>ATOM
   1 C1            -0.0161     1.3334     0.0094 C.2     
   2 C2             0.0021    -0.0041     0.0020 C.2     
   3 C3             1.2765    -0.5926    -0.0133 C.ar    
   4 C4             2.3070     0.3565    -0.0181 C.ar    
   5 S5             1.6171     1.9754    -0.0028 S.3     
   6 C6             3.6408    -0.0640    -0.0323 C.ar    
   7 C7             3.9425    -1.4048    -0.0422 C.ar    
   8 C8             2.9243    -2.3501    -0.0380 C.ar    
   9 C9             1.6204    -1.9656    -0.0240 C.ar    
  10 C10           -1.2351     2.1520     0.0198 C.2     
  11 O11           -2.3267     1.6168     0.0223 O.2     
  12 O12           -1.1438     3.4973     0.0267 O.3     
  13 N13            5.3563    -1.8430    -0.0578 N.pl3   
  14 O14            6.2503    -1.0157    -0.0619 O.2     
  15 O15            5.6257    -3.0308    -0.0665 O.2     
  16 H16           -0.9037    -0.5922     0.0079 H       
  17 H17            4.4359     0.6669    -0.0360 H       
  18 H18            3.1713    -3.4014    -0.0462 H       
  19 H19            0.8412    -2.7134    -0.0202 H       
  20 H20           -1.9737     3.9936     0.0335 H       
@<TRIPOS>BOND
   1    1    2 2
   2    1    5 1
   3    1   10 1
   4    2    3 1
   5    2   16 1
   6    3    4 ar
   7    3    9 ar
   8    4    5 1
   9    4    6 ar
  10    6    7 ar
  11    6   17 1
  12    7    8 ar
  13    7   13 1
  14    8    9 ar
  15    8   18 1
  16    9   19 1
  17   10   11 2
  18   10   12 1
  19   12   20 1
  20   13   14 2
  21   13   15 2

#	End of record

