#	Name: ASD09790016
#	Creating user name:	WinNT
#	Creation time:	15. 06. 2019 21:24

#	Modifying user name:	WinNT
#	Modification time:	15. 06. 2019 21:24

#	Program:	/corina/corina34_cracker 3.40 0067  02.08.2006

@<TRIPOS>MOLECULE
ASD09790016
  37   40    0    0    0
SMALL
NO_CHARGES


@<TRIPOS>ATOM
   1 C1            -0.2542     2.1075    -0.5401 C.2     
   2 C2            -0.4535     0.6716    -0.2438 C.ar    
   3 C3             0.5834    -0.0302     0.3903 C.ar    
   4 O4             1.7332     0.5849     0.7324 O.3     
   5 C5             2.0769     1.7869     0.2273 C.ar    
   6 C6             1.1276     2.6044    -0.4116 C.ar    
   7 C7            -1.6393     0.0255    -0.5856 C.ar    
   8 C8            -1.7903    -1.3150    -0.3006 C.ar    
   9 C9            -0.7671    -2.0133     0.3220 C.ar    
  10 C10            0.4095    -1.3826     0.6664 C.ar    
  11 C11            1.4930     3.8592    -0.9150 C.ar    
  12 C12            3.3863     2.2340     0.3344 C.ar    
  13 C13            3.7444     3.4737    -0.1727 C.ar    
  14 C14            2.8033     4.2864    -0.7941 C.ar    
  15 O15           -1.1736     2.8325    -0.8743 O.2     
  16 O16            0.5691     4.6496    -1.5170 O.3     
  17 O17            5.0290     3.8984    -0.0619 O.3     
  18 C18            5.2884     4.8231     0.8835 C.2     
  19 C19            6.6368     5.4151     0.9868 C.ar    
  20 O20            4.4125     5.1696     1.6508 O.2     
  21 C21            6.9111     6.3704     1.9699 C.ar    
  22 C22            8.1752     6.9190     2.0602 C.ar    
  23 C23            7.6462     5.0193     0.1065 C.ar    
  24 C24            8.9038     5.5761     0.2089 C.ar    
  25 C25            9.1676     6.5255     1.1807 C.ar    
  26 Cl26           5.6662     6.8659     3.0736 Cl      
  27 H27           -2.4353     0.5711    -1.0704 H       
  28 H28           -2.7074    -1.8218    -0.5624 H       
  29 H29           -0.8933    -3.0636     0.5398 H       
  30 H30            1.1980    -1.9397     1.1506 H       
  31 H31            4.1289     1.6142     0.8147 H       
  32 H32            3.0947     5.2514    -1.1817 H       
  33 H33            0.1089     5.2475    -0.9122 H       
  34 H34            8.3893     7.6572     2.8190 H       
  35 H35            7.4425     4.2786    -0.6525 H       
  36 H36            9.6851     5.2703    -0.4712 H       
  37 H37           10.1545     6.9578     1.2557 H       
@<TRIPOS>BOND
   1    1    2 1
   2    1    6 1
   3    1   15 2
   4    2    3 ar
   5    2    7 ar
   6    3    4 1
   7    3   10 ar
   8    4    5 1
   9    5   12 ar
  10    5    6 ar
  11    6   11 ar
  12    7    8 ar
  13    7   27 1
  14    8    9 ar
  15    8   28 1
  16    9   10 ar
  17    9   29 1
  18   10   30 1
  19   11   14 ar
  20   11   16 1
  21   12   13 ar
  22   12   31 1
  23   13   14 ar
  24   13   17 1
  25   14   32 1
  26   16   33 1
  27   17   18 1
  28   18   19 1
  29   18   20 2
  30   19   23 ar
  31   19   21 ar
  32   21   22 ar
  33   21   26 1
  34   22   25 ar
  35   22   34 1
  36   23   24 ar
  37   23   35 1
  38   24   25 ar
  39   24   36 1
  40   25   37 1

#	End of record

