#	Name: ASD03240420
#	Creating user name:	WinNT
#	Creation time:	15. 06. 2019 20:34

#	Modifying user name:	WinNT
#	Modification time:	15. 06. 2019 20:34

#	Program:	/corina/corina34_cracker 3.40 0067  02.08.2006

@<TRIPOS>MOLECULE
ASD03240420
  38   40    0    0    0
SMALL
NO_CHARGES


@<TRIPOS>ATOM
   1 C1            -0.0469     1.4400     0.1127 C.ar    
   2 C2            -0.2493     0.2453    -0.5527 C.ar    
   3 C3             1.6481     3.4953    -2.0752 C.ar    
   4 C4             1.1068     3.4105    -0.8052 C.ar    
   5 C5             1.2782     2.1491     0.0014 C.3     
   6 C6             1.4940     4.6482    -2.8182 C.ar    
   7 C7             0.7918     5.7276    -2.2869 C.ar    
   8 C8             0.2490     5.6371    -1.0072 C.ar    
   9 C9             0.4090     4.4794    -0.2727 C.ar    
  10 C10            0.6233     6.9705    -3.0814 C.2     
  11 C11           -1.4644    -0.4055    -0.4510 C.ar    
  12 C12           -2.4782     0.1390     0.3170 C.ar    
  13 C13           -2.2751     1.3347     0.9827 C.ar    
  14 C14           -1.0615     1.9874     0.8756 C.ar    
  15 C15           -0.0372     8.0969    -2.6858 C.2     
  16 N16            0.0406     8.9902    -3.6927 N.pl3   
  17 N17            0.7657     8.4078    -4.7393 N.2     
  18 C18            1.1214     7.2034    -4.3781 C.2     
  19 Cl19          -4.0049    -0.6775     0.4448 Cl      
  20 C20            1.7861     2.5034     1.4004 C.3     
  21 N21            3.0163     3.2985     1.2880 N.3     
  22 O22            2.2229     1.2944    -0.6460 O.3     
  23 H23            0.5421    -0.1794    -1.1524 H       
  24 H24            2.1962     2.6595    -2.4844 H       
  25 H25            1.9174     4.7135    -3.8096 H       
  26 H26           -0.2963     6.4710    -0.5906 H       
  27 H27           -0.0117     4.4080     0.7194 H       
  28 H28           -1.6225    -1.3386    -0.9712 H       
  29 H29           -3.0662     1.7602     1.5823 H       
  30 H30           -0.9028     2.9208     1.3952 H       
  31 H31           -0.5327     8.2460    -1.7378 H       
  32 H32           -0.3403     9.8823    -3.6922 H       
  33 H33            1.6918     6.5055    -4.9730 H       
  34 H34            1.0268     3.0815     1.9271 H       
  35 H35            1.9946     1.5879     1.9540 H       
  36 H36            2.8647     4.1213     0.7240 H       
  37 H37            3.3719     3.5453     2.1994 H       
  38 H38            1.9654     1.0290    -1.5395 H       
@<TRIPOS>BOND
   1    1    2 ar
   2    1    5 1
   3    1   14 ar
   4    2   11 ar
   5    2   23 1
   6    3    4 ar
   7    3    6 ar
   8    3   24 1
   9    4    5 1
  10    4    9 ar
  11    5   20 1
  12    5   22 1
  13    6    7 ar
  14    6   25 1
  15    7    8 ar
  16    7   10 1
  17    8    9 ar
  18    8   26 1
  19    9   27 1
  20   10   15 2
  21   10   18 1
  22   11   12 ar
  23   11   28 1
  24   12   13 ar
  25   12   19 1
  26   13   14 ar
  27   13   29 1
  28   14   30 1
  29   15   16 1
  30   15   31 1
  31   16   17 1
  32   16   32 1
  33   17   18 2
  34   18   33 1
  35   20   21 1
  36   20   34 1
  37   20   35 1
  38   21   36 1
  39   21   37 1
  40   22   38 1

#	End of record

