#	Name: ASD04590681
#	Creating user name:	WinNT
#	Creation time:	15. 06. 2019 20:51

#	Modifying user name:	WinNT
#	Modification time:	15. 06. 2019 20:51

#	Program:	/corina/corina34_cracker 3.40 0067  02.08.2006

@<TRIPOS>MOLECULE
ASD04590681
  56   61    0    0    0
SMALL
NO_CHARGES


@<TRIPOS>ATOM
   1 N1            -0.0159     1.3227     0.0093 N.ar    
   2 C2             0.0021    -0.0041     0.0020 C.ar    
   3 N3             1.1297    -0.6960    -0.0125 N.ar    
   4 C4             2.3053    -0.0744    -0.0204 C.ar    
   5 C5             2.3200     1.3351    -0.0129 C.ar    
   6 C6             1.1086     2.0192     0.0023 C.ar    
   7 N7             3.6030    -0.5212    -0.0351 N.pl3   
   8 C8             4.4823     0.5486    -0.0378 C.ar    
   9 C9             3.7325     1.7365    -0.0243 C.ar    
  10 N10           -1.2022    -0.6889     0.0103 N.pl3   
  11 C11           -2.3997     0.0130     0.0260 C.2     
  12 C12            4.0016    -1.9309    -0.0461 C.3     
  13 C13            3.4611    -2.6412     1.2073 C.3     
  14 S14           -2.5360     1.7172     0.0290 S.3     
  15 C15            5.8712     0.6431    -0.0510 C.ar    
  16 N16            6.4595     1.8239    -0.0502 N.ar    
  17 C17            5.7763     2.9557    -0.0376 C.ar    
  18 C18            4.4087     2.9574    -0.0242 C.ar    
  19 F19            6.6208    -0.4807    -0.0642 F       
  20 C20            2.5278    -3.7642     0.7095 C.3     
  21 C21            3.0199    -4.0568    -0.7297 C.3     
  22 C22            3.3779    -2.6470    -1.2618 C.3     
  23 N23           -3.5780    -0.5284     0.0348 N.2     
  24 C24           -4.6123     0.2925     0.0490 C.2     
  25 C25           -4.2928     1.5875     0.0504 C.2     
  26 C26           -6.0384    -0.1945     0.0597 C.3     
  27 N27           -6.4755    -0.4600    -1.3173 N.3     
  28 C28           -5.7880    -1.6461    -1.8724 C.3     
  29 C29           -5.5782    -1.3845    -3.3753 C.3     
  30 C30           -6.1580     0.0268    -3.6243 C.3     
  31 C31           -6.1226     0.6695    -2.2150 C.3     
  32 O32           -5.3345     0.7585    -4.5346 O.3     
  33 H33            1.0868     3.0990     0.0080 H       
  34 H34           -1.2086    -1.6589     0.0052 H       
  35 H35            5.0880    -2.0112    -0.0814 H       
  36 H36            4.2851    -3.0670     1.7798 H       
  37 H37            2.9022    -1.9371     1.8237 H       
  38 H38            6.3078     3.8959    -0.0376 H       
  39 H39            3.8610     3.8881    -0.0139 H       
  40 H40            2.6302    -4.6507     1.3353 H       
  41 H41            1.4928    -3.4225     0.6967 H       
  42 H42            3.9005    -4.6989    -0.7138 H       
  43 H43            2.2249    -4.5044    -1.3262 H       
  44 H44            2.4803    -2.1248    -1.5930 H       
  45 H45            4.1007    -2.7182    -2.0747 H       
  46 H46           -4.9895     2.4126     0.0614 H       
  47 H47           -6.1047    -1.1116     0.6452 H       
  48 H48           -6.6791     0.5672     0.5039 H       
  49 H49           -4.8245    -1.7806    -1.3808 H       
  50 H50           -6.4062    -2.5329    -1.7326 H       
  51 H51           -4.5158    -1.4053    -3.6183 H       
  52 H52           -6.1170    -2.1246    -3.9670 H       
  53 H53           -7.1815    -0.0363    -3.9938 H       
  54 H54           -6.8608     1.4677    -2.1375 H       
  55 H55           -5.1244     1.0440    -1.9879 H       
  56 H56           -5.2606     0.3544    -5.4100 H       
@<TRIPOS>BOND
   1    1    2 ar
   2    1    6 ar
   3    2    3 ar
   4    2   10 1
   5    3    4 ar
   6    4    5 ar
   7    4    7 1
   8    5    6 ar
   9    5    9 1
  10    6   33 1
  11    7    8 1
  12    7   12 1
  13    8    9 ar
  14    8   15 ar
  15    9   18 ar
  16   10   11 1
  17   10   34 1
  18   11   23 2
  19   11   14 1
  20   12   13 1
  21   12   22 1
  22   12   35 1
  23   13   20 1
  24   13   36 1
  25   13   37 1
  26   14   25 1
  27   15   16 ar
  28   15   19 1
  29   16   17 ar
  30   17   18 ar
  31   17   38 1
  32   18   39 1
  33   20   21 1
  34   20   40 1
  35   20   41 1
  36   21   22 1
  37   21   42 1
  38   21   43 1
  39   22   44 1
  40   22   45 1
  41   23   24 1
  42   24   25 2
  43   24   26 1
  44   25   46 1
  45   26   27 1
  46   26   47 1
  47   26   48 1
  48   27   28 1
  49   27   31 1
  50   28   29 1
  51   28   49 1
  52   28   50 1
  53   29   30 1
  54   29   51 1
  55   29   52 1
  56   30   31 1
  57   30   32 1
  58   30   53 1
  59   31   54 1
  60   31   55 1
  61   32   56 1

#	End of record

