#	Name: ASD03093010
#	Creating user name:	WinNT
#	Creation time:	15. 06. 2019 20:33

#	Modifying user name:	WinNT
#	Modification time:	15. 06. 2019 20:33

#	Program:	/corina/corina34_cracker 3.40 0067  02.08.2006

@<TRIPOS>MOLECULE
ASD03093010
  57   60    0    0    0
SMALL
NO_CHARGES


@<TRIPOS>ATOM
   1 C1            -0.0178     1.4608     0.0101 C.3     
   2 N2             0.0021    -0.0041     0.0020 N.am    
   3 C3            -1.1558    -0.6938     0.0094 C.2     
   4 C4            -1.1354    -2.2006     0.0011 C.3     
   5 O5            -2.2142    -0.1017     0.0227 O.2     
   6 N6            -2.5098    -2.7077     0.0115 N.am    
   7 N7            -3.1352    -2.9493     1.2349 N.2     
   8 C8            -4.3514    -3.3988     1.3251 C.2     
   9 C9            -5.1223    -3.6724     0.1121 C.ar    
  10 C10           -4.5144    -3.4369    -1.1423 C.ar    
  11 C11           -3.1391    -2.9235    -1.1625 C.2     
  12 C12           -4.9675    -3.6386     2.6793 C.3     
  13 C13           -3.9190    -3.3959     3.7668 C.3     
  14 C14           -4.5445    -3.6394     5.1417 C.3     
  15 C15           -5.7202    -2.6815     5.3440 C.3     
  16 C16           -6.7687    -2.9242     4.2565 C.3     
  17 C17           -6.1433    -2.6807     2.8816 C.3     
  18 C18           -6.4309    -4.1561     0.1640 C.ar    
  19 C19           -7.1099    -4.3968    -0.9977 C.ar    
  20 C20           -6.5161    -4.1667    -2.2321 C.ar    
  21 C21           -5.2263    -3.6896    -2.3141 C.ar    
  22 O22           -2.5738    -2.7049    -2.2191 O.2     
  23 C23            1.4176     1.9904    -0.0008 C.3     
  24 O24            2.0499     1.6276    -1.2299 O.3     
  25 F25           -6.2922    -2.9041     6.6012 F       
  26 F26           -5.2646    -1.3610     5.2662 F       
  27 C27            3.3383     2.0242    -1.4015 C.ar    
  28 C28            4.0133     1.7063    -2.5711 C.ar    
  29 C29            5.3230     2.1106    -2.7430 C.ar    
  30 C30            5.9612     2.8315    -1.7507 C.ar    
  31 C31            5.2908     3.1492    -0.5839 C.ar    
  32 C32            3.9791     2.7525    -0.4096 C.ar    
  33 H33           -0.5450     1.8219    -0.8730 H       
  34 H34           -0.5280     1.8123     0.9069 H       
  35 H35            0.8486    -0.4776    -0.0086 H       
  36 H36           -0.6252    -2.5521    -0.8957 H       
  37 H37           -0.6082    -2.5617     0.8841 H       
  38 H38           -5.3225    -4.6674     2.7400 H       
  39 H39           -3.0814    -4.0784     3.6227 H       
  40 H40           -3.5640    -2.3671     3.7062 H       
  41 H41           -4.8994    -4.6682     5.2024 H       
  42 H42           -3.7975    -3.4665     5.9165 H       
  43 H43           -7.1237    -3.9530     4.3172 H       
  44 H44           -7.6063    -2.2417     4.4007 H       
  45 H45           -5.7883    -1.6519     2.8210 H       
  46 H46           -6.8902    -2.8536     2.1069 H       
  47 H47           -6.9042    -4.3397     1.1172 H       
  48 H48           -8.1220    -4.7713    -0.9551 H       
  49 H49           -7.0713    -4.3642    -3.1372 H       
  50 H50           -4.7710    -3.5127    -3.2773 H       
  51 H51            1.4050     3.0761     0.0947 H       
  52 H52            1.9705     1.5586     0.8335 H       
  53 H53            3.5154     1.1430    -3.3464 H       
  54 H54            5.8490     1.8631    -3.6532 H       
  55 H55            6.9852     3.1466    -1.8870 H       
  56 H56            5.7917     3.7117     0.1901 H       
  57 H57            3.4558     3.0009     0.5019 H       
@<TRIPOS>BOND
   1    1    2 1
   2    1   23 1
   3    1   33 1
   4    1   34 1
   5    2    3 am
   6    2   35 1
   7    3    4 1
   8    3    5 2
   9    4    6 1
  10    4   36 1
  11    4   37 1
  12    6    7 1
  13    6   11 am
  14    7    8 2
  15    8    9 1
  16    8   12 1
  17    9   10 ar
  18    9   18 ar
  19   10   11 1
  20   10   21 ar
  21   11   22 2
  22   12   13 1
  23   12   17 1
  24   12   38 1
  25   13   14 1
  26   13   39 1
  27   13   40 1
  28   14   15 1
  29   14   41 1
  30   14   42 1
  31   15   16 1
  32   15   25 1
  33   15   26 1
  34   16   17 1
  35   16   43 1
  36   16   44 1
  37   17   45 1
  38   17   46 1
  39   18   19 ar
  40   18   47 1
  41   19   20 ar
  42   19   48 1
  43   20   21 ar
  44   20   49 1
  45   21   50 1
  46   23   24 1
  47   23   51 1
  48   23   52 1
  49   24   27 1
  50   27   28 ar
  51   27   32 ar
  52   28   29 ar
  53   28   53 1
  54   29   30 ar
  55   29   54 1
  56   30   31 ar
  57   30   55 1
  58   31   32 ar
  59   31   56 1
  60   32   57 1

#	End of record

