#	Name: ASD08150367
#	Creating user name:	WinNT
#	Creation time:	15. 06. 2019 21:15

#	Modifying user name:	WinNT
#	Modification time:	15. 06. 2019 21:15

#	Program:	/corina/corina34_cracker 3.40 0067  02.08.2006

@<TRIPOS>MOLECULE
ASD08150367
  43   47    0    0    0
SMALL
NO_CHARGES


@<TRIPOS>ATOM
   1 N1             0.9955     3.0976    -1.6835 N.am    
   2 C2             1.4078     2.4447    -2.7874 C.2     
   3 C3             2.6146     1.7162    -2.7889 C.2     
   4 C4             3.3821     1.6633    -1.6706 C.2     
   5 C5             2.9517     2.3494    -0.5075 C.ar    
   6 C6             3.7103     2.3273     0.6786 C.ar    
   7 N7             3.3111     2.9615     1.7499 N.ar    
   8 C8             2.1681     3.6635     1.7841 C.ar    
   9 C9             1.3416     3.7406     0.6363 C.ar    
  10 C10            1.7450     3.0651    -0.5393 C.ar    
  11 C11            0.1519     4.4742     0.6828 C.ar    
  12 C12           -0.2062     5.1194     1.8546 C.ar    
  13 C13            0.6165     5.0387     2.9863 C.ar    
  14 C14            1.7768     4.3296     2.9569 C.ar    
  15 O15            0.7278     2.4841    -3.7986 O.2     
  16 C16           -1.4672     5.9005     1.9122 C.2     
  17 C17           -0.2046     3.8188    -1.7090 C.ar    
  18 C18           -0.1942     5.1762    -2.0035 C.ar    
  19 C19           -1.3786     5.8853    -2.0286 C.ar    
  20 C20           -2.5767     5.2440    -1.7603 C.ar    
  21 C21           -2.5893     3.8909    -1.4665 C.ar    
  22 C22           -1.4073     3.1768    -1.4455 C.ar    
  23 F23           -3.7345     5.9398    -1.7850 F       
  24 C24           -2.6794     5.5726     1.2742 C.2     
  25 N25           -3.5538     6.4997     1.5628 N.2     
  26 N26           -2.9400     7.4484     2.3895 N.pl3   
  27 C27           -1.6645     7.0638     2.5977 C.2     
  28 C28           -3.8942     3.1959    -1.1745 C.3     
  29 F29           -3.6531     1.8438    -0.9084 F       
  30 F30           -4.4999     3.7894    -0.0618 F       
  31 F31           -4.7411     3.3094    -2.2823 F       
  32 H32            2.9294     1.1981    -3.6827 H       
  33 H33            4.3072     1.1061    -1.6670 H       
  34 H34            4.6387     1.7762     0.7039 H       
  35 H35           -0.4827     4.5374    -0.1888 H       
  36 H36            0.3255     5.5469     3.8937 H       
  37 H37            2.3988     4.2781     3.8384 H       
  38 H38            0.7398     5.6766    -2.2124 H       
  39 H39           -1.3709     6.9408    -2.2572 H       
  40 H40           -1.4180     2.1206    -1.2203 H       
  41 H41           -2.8554     4.7060     0.6541 H       
  42 H42           -3.3608     8.2433     2.7528 H       
  43 H43           -0.9302     7.5854     3.1936 H       
@<TRIPOS>BOND
   1    1    2 am
   2    1   10 1
   3    1   17 1
   4    2    3 1
   5    2   15 2
   6    3    4 2
   7    3   32 1
   8    4    5 1
   9    4   33 1
  10    5    6 ar
  11    5   10 ar
  12    6    7 ar
  13    6   34 1
  14    7    8 ar
  15    8    9 ar
  16    8   14 ar
  17    9   10 ar
  18    9   11 ar
  19   11   12 ar
  20   11   35 1
  21   12   13 ar
  22   12   16 1
  23   13   14 ar
  24   13   36 1
  25   14   37 1
  26   16   24 1
  27   16   27 2
  28   17   18 ar
  29   17   22 ar
  30   18   19 ar
  31   18   38 1
  32   19   20 ar
  33   19   39 1
  34   20   21 ar
  35   20   23 1
  36   21   22 ar
  37   21   28 1
  38   22   40 1
  39   24   25 2
  40   24   41 1
  41   25   26 1
  42   26   27 1
  43   26   42 1
  44   27   43 1
  45   28   29 1
  46   28   30 1
  47   28   31 1

#	End of record

