#	Name: ASD01328002
#	Creating user name:	WinNT
#	Creation time:	15. 06. 2019 19:16

#	Modifying user name:	WinNT
#	Modification time:	15. 06. 2019 19:16

#	Program:	/corina/corina34_cracker 3.40 0067  02.08.2006

@<TRIPOS>MOLECULE
ASD01328002
  43   44    0    0    0
SMALL
NO_CHARGES


@<TRIPOS>ATOM
   1 N1             0.0705     1.1007     0.1263 N.am    
   2 C2             1.3880     1.7412     0.1287 C.3     
   3 C3             1.4888     2.7060    -1.0556 C.3     
   4 O4             1.3715     1.9754    -2.2781 O.3     
   5 C5             2.8454     3.4160    -1.0118 C.3     
   6 O6             2.9191     4.3720    -2.0713 O.3     
   7 C7             2.9917     4.1312     0.3348 C.3     
   8 O8             4.2835     4.7369     0.4160 O.3     
   9 C9             2.8329     3.1114     1.4655 C.3     
  10 O10            1.5635     2.4657     1.3479 O.3     
  11 C11            2.9179     3.8279     2.8146 C.3     
  12 O12            2.8865     2.8637     3.8689 O.3     
  13 C13           -0.0572    -0.1794     0.5283 C.2     
  14 S14            1.3202    -1.0569     1.0417 S.2     
  15 N15           -2.3966    -0.0506     0.1059 N.2     
  16 N16           -1.2694    -0.7687     0.5260 N.am    
  17 C17           -3.5410    -0.6506    -0.0126 C.2     
  18 C18           -3.5909    -2.1115    -0.2093 C.ar    
  19 C19           -4.8097    -2.7881    -0.1303 C.ar    
  20 C20           -4.8483    -4.1592    -0.3161 C.ar    
  21 C21           -3.6777    -4.8583    -0.5802 C.ar    
  22 C22           -2.4698    -4.1902    -0.6589 C.ar    
  23 C23           -2.4198    -2.8227    -0.4811 C.ar    
  24 O24           -6.0324    -4.8219    -0.2396 O.3     
  25 H25           -0.7106     1.5991    -0.1608 H       
  26 H26            2.1629     0.9793     0.0439 H       
  27 H27            0.6886     3.4435    -0.9938 H       
  28 H28            0.5368     1.4962    -2.3713 H       
  29 H29            3.6443     2.6832    -1.1256 H       
  30 H30            2.8269     3.9884    -2.9542 H       
  31 H31            2.2232     4.8989     0.4249 H       
  32 H32            4.4549     5.3918    -0.2745 H       
  33 H33            3.6267     2.3674     1.3981 H       
  34 H34            3.8479     4.3939     2.8675 H       
  35 H35            2.0724     4.5078     2.9188 H       
  36 H36            2.9368     3.2479     4.7548 H       
  37 H37           -1.3613    -1.6900     0.8153 H       
  38 H38           -4.4570    -0.0803     0.0329 H       
  39 H39           -5.7193    -2.2435     0.0755 H       
  40 H40           -3.7110    -5.9281    -0.7243 H       
  41 H41           -1.5632    -4.7398    -0.8645 H       
  42 H42           -1.4752    -2.3034    -0.5477 H       
  43 H43           -6.4987    -4.8928    -1.0837 H       
@<TRIPOS>BOND
   1    1   13 am
   2    1    2 1
   3    1   25 1
   4    2    3 1
   5    2   10 1
   6    2   26 1
   7    3    4 1
   8    3    5 1
   9    3   27 1
  10    4   28 1
  11    5    6 1
  12    5    7 1
  13    5   29 1
  14    6   30 1
  15    7    8 1
  16    7    9 1
  17    7   31 1
  18    8   32 1
  19    9   10 1
  20    9   11 1
  21    9   33 1
  22   11   12 1
  23   11   34 1
  24   11   35 1
  25   12   36 1
  26   13   14 2
  27   13   16 am
  28   15   16 1
  29   15   17 2
  30   16   37 1
  31   17   18 1
  32   17   38 1
  33   18   19 ar
  34   18   23 ar
  35   19   20 ar
  36   19   39 1
  37   20   21 ar
  38   20   24 1
  39   21   22 ar
  40   21   40 1
  41   22   23 ar
  42   22   41 1
  43   23   42 1
  44   24   43 1

#	End of record

