#	Name: ASD01918017
#	Creating user name:	WinNT
#	Creation time:	15. 06. 2019 20:10

#	Modifying user name:	WinNT
#	Modification time:	15. 06. 2019 20:10

#	Program:	/corina/corina34_cracker 3.40 0067  02.08.2006

@<TRIPOS>MOLECULE
ASD01918017
  46   49    0    0    0
SMALL
NO_CHARGES


@<TRIPOS>ATOM
   1 N1             4.8190    -0.4143    -2.1420 N.ar    
   2 C2             5.2861     0.2841    -3.1582 C.ar    
   3 C3             5.1750     1.6620    -3.1834 C.ar    
   4 C4             4.5630     2.3107    -2.1233 C.ar    
   5 C5             4.0810     1.5428    -1.0675 C.ar    
   6 C6             4.2301     0.1643    -1.1141 C.ar    
   7 O7             3.4737     2.1348    -0.0057 O.3     
   8 C8             3.4561     3.4939     0.0436 C.2     
   9 N9             2.2077     5.5081    -0.0225 N.pl3   
  10 C10            2.2741     4.1522    -0.0661 C.2     
  11 C11            4.6566     4.1941     0.2124 C.2     
  12 C12            4.6304     5.5835     0.2618 C.2     
  13 C13            3.3388     6.2580     0.1342 C.2     
  14 C14            5.8714     6.3562     0.4387 C.2     
  15 N15            5.8263     7.7024     0.4843 N.am    
  16 C16            6.9830     8.4293     0.7569 C.ar    
  17 N17            8.1432     7.8003     0.8632 N.ar    
  18 C18            6.9095     9.8092     0.9092 C.ar    
  19 C19            8.0664    10.5191     1.1794 C.ar    
  20 C20            9.2613     9.8214     1.2883 C.ar    
  21 C21            9.2617     8.4505     1.1199 C.ar    
  22 O22            6.9371     5.7795     0.5437 O.2     
  23 N23            1.1459     6.4204    -0.1085 N.2     
  24 C24            1.6622     7.6227    -0.0124 C.2     
  25 N25            2.9772     7.5313     0.1398 N.2     
  26 C26            5.7138     2.4490    -4.3501 C.3     
  27 C27           10.5567     7.6878     1.2311 C.3     
  28 C28           10.4085     6.5809     2.2769 C.3     
  29 H29            5.7622    -0.2271    -3.9818 H       
  30 H30            4.4628     3.3860    -2.1163 H       
  31 H31            3.8597    -0.4412    -0.3001 H       
  32 H32            1.3642     3.5840    -0.1915 H       
  33 H33            5.5917     3.6615     0.3036 H       
  34 H34            4.9884     8.1652     0.3272 H       
  35 H35            5.9625    10.3203     0.8176 H       
  36 H36            8.0400    11.5917     1.3024 H       
  37 H37           10.1820    10.3455     1.4984 H       
  38 H38            1.1016     8.5453    -0.0433 H       
  39 H39            4.9358     2.5569    -5.1059 H       
  40 H40            6.0282     3.4353    -4.0089 H       
  41 H41            6.5671     1.9240    -4.7795 H       
  42 H42           10.8017     7.2451     0.2657 H       
  43 H43           11.3540     8.3675     1.5320 H       
  44 H44           10.1635     7.0236     3.2423 H       
  45 H45            9.6112     5.9012     1.9760 H       
  46 H46           11.3451     6.0292     2.3573 H       
@<TRIPOS>BOND
   1    1    2 ar
   2    1    6 ar
   3    2    3 ar
   4    2   29 1
   5    3    4 ar
   6    3   26 1
   7    4    5 ar
   8    4   30 1
   9    5    6 ar
  10    5    7 1
  11    6   31 1
  12    7    8 1
  13    8   11 1
  14    8   10 2
  15    9   10 1
  16    9   23 1
  17    9   13 1
  18   10   32 1
  19   11   12 2
  20   11   33 1
  21   12   13 1
  22   12   14 1
  23   13   25 2
  24   14   15 am
  25   14   22 2
  26   15   16 1
  27   15   34 1
  28   16   18 ar
  29   16   17 ar
  30   17   21 ar
  31   18   19 ar
  32   18   35 1
  33   19   20 ar
  34   19   36 1
  35   20   21 ar
  36   20   37 1
  37   21   27 1
  38   23   24 2
  39   24   25 1
  40   24   38 1
  41   26   39 1
  42   26   40 1
  43   26   41 1
  44   27   28 1
  45   27   42 1
  46   27   43 1
  47   28   44 1
  48   28   45 1
  49   28   46 1

#	End of record

