#	Name: ASD01948078
#	Creating user name:	WinNT
#	Creation time:	15. 06. 2019 20:13

#	Modifying user name:	WinNT
#	Modification time:	15. 06. 2019 20:13

#	Program:	/corina/corina34_cracker 3.40 0067  02.08.2006

@<TRIPOS>MOLECULE
ASD01948078
  44   47    0    0    0
SMALL
NO_CHARGES


@<TRIPOS>ATOM
   1 C1             0.0270     1.5041    -1.8949 C.3     
   2 C2            -0.1167    -0.0169    -1.9792 C.3     
   3 C3            -0.9272     0.8812    -2.9159 C.3     
   4 S4            -0.7081     2.3366    -0.4607 S.o2    
   5 O5            -2.1252     2.3507    -0.5645 O.2     
   6 O6            -0.0654     1.9253     0.7381 O.2     
   7 N7            -0.2700     3.9240    -0.6350 N.am    
   8 C8             2.0613     3.3254    -0.3929 C.2     
   9 C9             1.0852     4.2980    -0.5224 C.2     
  10 C10            1.4404     5.6541    -0.5425 C.2     
  11 C11            2.7878     5.9811    -0.4293 C.2     
  12 C12            3.7281     4.9739    -0.3018 C.2     
  13 N13            3.3766     3.6536    -0.2823 N.am    
  14 S14            1.8674     1.5667    -0.3350 S.3     
  15 C15            4.3189     2.5430    -0.1506 C.3     
  16 C16            3.6339     1.1793    -0.1594 C.3     
  17 O17            4.9090     5.2745    -0.2031 O.2     
  18 C18            3.2211     7.4244    -0.4460 C.3     
  19 N19            0.4752     6.6423    -0.6721 N.pl3   
  20 C20           -0.3196     6.6974    -1.8222 C.ar    
  21 C21           -1.3565     7.6209    -1.9097 C.ar    
  22 C22           -2.1392     7.6723    -3.0480 C.ar    
  23 C23           -1.8918     6.8062    -4.0985 C.ar    
  24 C24           -0.8616     5.8876    -4.0135 C.ar    
  25 C25           -0.0718     5.8346    -2.8809 C.ar    
  26 I26           -3.0811     6.8864    -5.8214 I       
  27 F27           -1.5984     8.4657    -0.8835 F       
  28 H28            0.9503     1.9440    -2.2720 H       
  29 H29            0.7121    -0.5775    -2.4117 H       
  30 H30           -0.6529    -0.5172    -1.1729 H       
  31 H31           -1.9967     0.9717    -2.7258 H       
  32 H32           -0.6317     0.9114    -3.9647 H       
  33 H33           -0.9454     4.5967    -0.8145 H       
  34 H34            5.0301     2.5858    -0.9755 H       
  35 H35            4.8649     2.6546     0.7862 H       
  36 H36            3.8182     0.6576     0.7797 H       
  37 H37            3.9787     0.5812    -1.0029 H       
  38 H38            3.3153     7.7874     0.5774 H       
  39 H39            4.1831     7.5091    -0.9515 H       
  40 H40            2.4784     8.0206    -0.9761 H       
  41 H41            0.3514     7.2951     0.0346 H       
  42 H42           -2.9444     8.3886    -3.1174 H       
  43 H43           -0.6717     5.2130    -4.8353 H       
  44 H44            0.7350     5.1194    -2.8177 H       
@<TRIPOS>BOND
   1    1    2 1
   2    1    3 1
   3    1    4 1
   4    1   28 1
   5    2    3 1
   6    2   29 1
   7    2   30 1
   8    3   31 1
   9    3   32 1
  10    4    5 2
  11    4    6 2
  12    4    7 am
  13    7    9 1
  14    7   33 1
  15    8    9 2
  16    8   13 1
  17    8   14 1
  18    9   10 1
  19   10   11 2
  20   10   19 1
  21   11   12 1
  22   11   18 1
  23   12   13 am
  24   12   17 2
  25   13   15 1
  26   14   16 1
  27   15   16 1
  28   15   34 1
  29   15   35 1
  30   16   36 1
  31   16   37 1
  32   18   38 1
  33   18   39 1
  34   18   40 1
  35   19   20 1
  36   19   41 1
  37   20   21 ar
  38   20   25 ar
  39   21   22 ar
  40   21   27 1
  41   22   23 ar
  42   22   42 1
  43   23   24 ar
  44   23   26 1
  45   24   25 ar
  46   24   43 1
  47   25   44 1

#	End of record

