#	Name: ASD05513006
#	Creating user name:	WinNT
#	Creation time:	15. 06. 2019 21:01

#	Modifying user name:	WinNT
#	Modification time:	15. 06. 2019 21:01

#	Program:	/corina/corina34_cracker 3.40 0067  02.08.2006

@<TRIPOS>MOLECULE
ASD05513006
  33   36    0    0    0
SMALL
NO_CHARGES


@<TRIPOS>ATOM
   1 C1             6.3561     2.8784     0.2901 C.ar    
   2 C2             6.9537     1.6298     0.3281 C.ar    
   3 C3             6.1931     0.4800     0.2241 C.ar    
   4 C4             4.8147     0.5650     0.0792 C.ar    
   5 C5             4.2110     1.8327     0.0410 C.ar    
   6 C6             4.9875     2.9861     0.1472 C.ar    
   7 N7             3.8392    -0.4216    -0.0447 N.am    
   8 C8             2.6117     0.1133    -0.1643 C.2     
   9 C9             2.7627     1.6049    -0.1177 C.2     
  10 O10            1.8858     2.4404    -0.1931 O.2     
  11 O11            1.5717    -0.4987    -0.2875 O.2     
  12 C12            4.1160    -1.8602    -0.0455 C.3     
  13 N13            4.1180    -2.3563    -1.4239 N.am    
  14 C14            5.1527    -2.2299    -2.2726 C.2     
  15 C15            4.7521    -2.8654    -3.5709 C.2     
  16 C16            3.3804    -3.3565    -3.3430 C.ar    
  17 C17            3.0500    -3.0240    -2.0190 C.ar    
  18 O18            6.2165    -1.6987    -2.0324 O.2     
  19 O19            5.4115    -2.9550    -4.5858 O.2     
  20 C20            2.4637    -4.0297    -4.1499 C.ar    
  21 C21            1.2240    -4.3646    -3.6439 C.ar    
  22 C22            0.8936    -4.0328    -2.3407 C.ar    
  23 C23            1.7979    -3.3724    -1.5298 C.ar    
  24 H24            6.9611     3.7688     0.3769 H       
  25 H25            8.0252     1.5534     0.4398 H       
  26 H26            6.6725    -0.4872     0.2553 H       
  27 H27            4.5201     3.9593     0.1178 H       
  28 H28            5.0903    -2.0430     0.4078 H       
  29 H29            3.3462    -2.3786     0.5261 H       
  30 H30            2.7225    -4.2876    -5.1662 H       
  31 H31            0.5106    -4.8857    -4.2652 H       
  32 H32           -0.0784    -4.2978    -1.9518 H       
  33 H33            1.5270    -3.1201    -0.5153 H       
@<TRIPOS>BOND
   1    1    2 ar
   2    1    6 ar
   3    1   24 1
   4    2    3 ar
   5    2   25 1
   6    3    4 ar
   7    3   26 1
   8    4    5 ar
   9    4    7 1
  10    5    6 ar
  11    5    9 1
  12    6   27 1
  13    7    8 am
  14    7   12 1
  15    8    9 1
  16    8   11 2
  17    9   10 2
  18   12   13 1
  19   12   28 1
  20   12   29 1
  21   13   14 am
  22   13   17 1
  23   14   15 1
  24   14   18 2
  25   15   16 1
  26   15   19 2
  27   16   17 ar
  28   16   20 ar
  29   17   23 ar
  30   20   21 ar
  31   20   30 1
  32   21   22 ar
  33   21   31 1
  34   22   23 ar
  35   22   32 1
  36   23   33 1

#	End of record

