#	Name: ASD03730051
#	Creating user name:	WinNT
#	Creation time:	15. 06. 2019 20:43

#	Modifying user name:	WinNT
#	Modification time:	15. 06. 2019 20:43

#	Program:	/corina/corina34_cracker 3.40 0067  02.08.2006

@<TRIPOS>MOLECULE
ASD03730051
  40   44    0    0    0
SMALL
NO_CHARGES


@<TRIPOS>ATOM
   1 C1            -0.0184     1.5028     0.0103 C.2     
   2 C2             0.0021    -0.0041     0.0020 C.3     
   3 O3             1.0197     2.1211     0.0037 O.2     
   4 O4            -1.1898     2.1580     0.0194 O.3     
   5 O5             5.2351    -2.4843     1.3753 O.3     
   6 C6             5.5783    -1.1844     1.6017 C.ar    
   7 C7             4.5759    -0.3174     1.1730 C.ar    
   8 C8             3.4661    -1.1774     0.6322 C.3     
   9 C9             3.8127    -2.5739     1.1672 C.3     
  10 O10            7.9248     1.4261     2.8376 O.3     
  11 C11            6.8893     0.7170     2.3086 C.ar    
  12 C12            5.8817     1.5611     1.8584 C.ar    
  13 C13            6.3412     2.9822     2.1191 C.3     
  14 C14            7.8540     2.7860     2.3770 C.3     
  15 C15            4.7327     1.0464     1.2985 C.ar    
  16 C16            6.7307    -0.6573     2.1712 C.ar    
  17 N17            1.3897    -0.4735    -0.0138 N.am    
  18 C18            2.1130    -0.7212     1.0965 C.2     
  19 C19            3.4015    -1.1532    -0.8661 C.ar    
  20 C20            4.3030    -1.4574    -1.8628 C.ar    
  21 C21            3.9358    -1.3309    -3.1916 C.ar    
  22 C22            2.6627    -0.8988    -3.5152 C.ar    
  23 C23            1.7568    -0.5933    -2.5209 C.ar    
  24 C24            2.1171    -0.7177    -1.1811 C.ar    
  25 O25            1.7431    -0.5998     2.2452 O.2     
  26 Br26           6.0430    -2.0473    -1.4153 Br      
  27 H27           -0.4983    -0.3791     0.8948 H       
  28 H28           -0.5153    -0.3696    -0.8850 H       
  29 H29           -1.1523     3.1243     0.0245 H       
  30 H30            3.5770    -3.3406     0.4291 H       
  31 H31            3.2955    -2.7678     2.1069 H       
  32 H32            6.1734     3.6124     1.2458 H       
  33 H33            5.8467     3.3965     2.9977 H       
  34 H34            8.2069     3.4730     3.1462 H       
  35 H35            8.4223     2.9116     1.4554 H       
  36 H36            3.9541     1.7124     0.9572 H       
  37 H37            7.5111    -1.3221     2.5110 H       
  38 H38            4.6419    -1.5688    -3.9734 H       
  39 H39            2.3762    -0.8000    -4.5518 H       
  40 H40            0.7648    -0.2558    -2.7821 H       
@<TRIPOS>BOND
   1    1    2 1
   2    1    3 2
   3    1    4 1
   4    2   17 1
   5    2   27 1
   6    2   28 1
   7    4   29 1
   8    5    6 1
   9    5    9 1
  10    6    7 ar
  11    6   16 ar
  12    7    8 1
  13    7   15 ar
  14    8    9 1
  15    8   18 1
  16    8   19 1
  17    9   30 1
  18    9   31 1
  19   10   11 1
  20   10   14 1
  21   11   12 ar
  22   11   16 ar
  23   12   13 1
  24   12   15 ar
  25   13   14 1
  26   13   32 1
  27   13   33 1
  28   14   34 1
  29   14   35 1
  30   15   36 1
  31   16   37 1
  32   17   18 am
  33   17   24 1
  34   18   25 2
  35   19   20 ar
  36   19   24 ar
  37   20   21 ar
  38   20   26 1
  39   21   22 ar
  40   21   38 1
  41   22   23 ar
  42   22   39 1
  43   23   24 ar
  44   23   40 1

#	End of record

