#	Name: ASD01810359
#	Creating user name:	WinNT
#	Creation time:	15. 06. 2019 19:24

#	Modifying user name:	WinNT
#	Modification time:	15. 06. 2019 19:24

#	Program:	/corina/corina34_cracker 3.40 0067  02.08.2006

@<TRIPOS>MOLECULE
ASD01810359
  28   29    0    0    0
SMALL
NO_CHARGES


@<TRIPOS>ATOM
   1 C1            -0.0176     1.4478     0.0100 C.3     
   2 O2             0.0021    -0.0041     0.0020 O.3     
   3 C3             0.6009    -0.6022    -1.0471 C.2     
   4 O4             1.0930     0.0714    -1.9310 O.2     
   5 C5             0.6587    -2.0709    -1.1222 C.ar    
   6 C6             0.0873    -2.8473    -0.0962 C.ar    
   7 C7             0.1275    -4.2026    -0.1433 C.ar    
   8 Br8           -0.6491    -5.2175     1.2505 Br      
   9 C9             0.7458    -4.8563    -1.2277 C.ar    
  10 C10            1.3266    -4.0928    -2.2702 C.ar    
  11 C11            1.2736    -2.6854    -2.2115 C.ar    
  12 O12            1.8232    -1.9380    -3.1985 O.3     
  13 C13            0.9791    -1.5956    -4.2995 C.3     
  14 C14            1.9414    -4.7511    -3.3475 C.ar    
  15 C15            1.9720    -6.1124    -3.3773 C.ar    
  16 C16            1.4011    -6.8635    -2.3526 C.ar    
  17 C17            0.7967    -6.2581    -1.2928 C.ar    
  18 H18            1.0050     1.8251     0.0023 H       
  19 H19           -0.5448     1.8089    -0.8731 H       
  20 H20           -0.5278     1.7993     0.9068 H       
  21 H21           -0.3893    -2.3574     0.7400 H       
  22 H22            0.1256    -1.0218    -3.9382 H       
  23 H23            1.5417    -0.9976    -5.0164 H       
  24 H24            0.6260    -2.5061    -4.7836 H       
  25 H25            2.3876    -4.1807    -4.1487 H       
  26 H26            2.4452    -6.6165    -4.2070 H       
  27 H27            1.4383    -7.9419    -2.3992 H       
  28 H28            0.3587    -6.8538    -0.5056 H       
@<TRIPOS>BOND
   1    1    2 1
   2    1   18 1
   3    1   19 1
   4    1   20 1
   5    2    3 1
   6    3    4 2
   7    3    5 1
   8    5    6 ar
   9    5   11 ar
  10    6    7 ar
  11    6   21 1
  12    7    8 1
  13    7    9 ar
  14    9   10 ar
  15    9   17 ar
  16   10   11 ar
  17   10   14 ar
  18   11   12 1
  19   12   13 1
  20   13   22 1
  21   13   23 1
  22   13   24 1
  23   14   15 ar
  24   14   25 1
  25   15   16 ar
  26   15   26 1
  27   16   17 ar
  28   16   27 1
  29   17   28 1

#	End of record

