#	Name: ASD03331597
#	Creating user name:	WinNT
#	Creation time:	15. 06. 2019 20:39

#	Modifying user name:	WinNT
#	Modification time:	15. 06. 2019 20:39

#	Program:	/corina/corina34_cracker 3.40 0067  02.08.2006

@<TRIPOS>MOLECULE
ASD03331597
  63   65    0    0    0
SMALL
NO_CHARGES


@<TRIPOS>ATOM
   1 C1            -0.0797     0.8632     2.0570 C.ar    
   2 C2             0.0341    -0.5667     1.6945 C.2     
   3 N3            -0.8734    -1.5370     1.9860 N.pl3   
   4 C4            -0.4087    -2.7000     1.4864 C.2     
   5 C5             0.7837    -2.4401     0.8910 C.2     
   6 N6             1.0271    -1.1161     1.0304 N.2     
   7 C7             1.6513    -3.4193     0.2127 C.2     
   8 N8             2.8151    -3.0208    -0.3380 N.am    
   9 C9            -2.1494    -1.3958     2.7151 C.3     
  10 C10           -2.0197    -2.2186     4.0071 C.3     
  11 C11           -2.2346    -3.6874     3.7340 C.3     
  12 N12           -1.1770    -4.3793     3.0279 N.3     
  13 C13           -1.1270    -4.0324     1.5945 C.3     
  14 C14           -0.7575     1.2401     3.2167 C.ar    
  15 C15           -0.8602     2.5752     3.5492 C.ar    
  16 C16           -0.2927     3.5394     2.7353 C.ar    
  17 C17            0.3803     3.1722     1.5838 C.ar    
  18 C18            0.4953     1.8400     1.2435 C.ar    
  19 O19            1.3171    -4.5870     0.1498 O.2     
  20 C20            3.6776    -3.9943    -1.0124 C.3     
  21 C21           -1.2825    -5.8326     3.2145 C.3     
  22 C22           -2.4470    -4.3917     5.0755 C.3     
  23 C23            3.2189    -4.1640    -2.4621 C.3     
  24 C24            5.1022    -3.5033    -0.9904 C.2     
  25 C25            3.2701    -2.8111    -3.1749 C.3     
  26 C26            4.1425    -5.1523    -3.1769 C.3     
  27 C27            1.7853    -4.6982    -2.4842 C.3     
  28 N28            6.1164    -4.3689    -1.1866 N.am    
  29 O29            5.3360    -2.3292    -0.7963 O.2     
  30 C30            7.5031    -3.9128    -1.0625 C.3     
  31 H31            3.0816    -2.0895    -0.2879 H       
  32 H32           -2.3256    -0.3478     2.9574 H       
  33 H33           -2.9691    -1.7815     2.1089 H       
  34 H34           -1.0237    -2.0739     4.4256 H       
  35 H35           -2.7631    -1.8754     4.7266 H       
  36 H36           -3.1514    -3.7916     3.1537 H       
  37 H37           -2.1384    -3.9431     1.1979 H       
  38 H38           -0.5773    -4.7971     1.0457 H       
  39 H39           -1.2012     0.4884     3.8527 H       
  40 H40           -1.3849     2.8683     4.4465 H       
  41 H41           -0.3758     4.5832     2.9999 H       
  42 H42            0.8208     3.9296     0.9523 H       
  43 H43            1.0209     1.5545     0.3443 H       
  44 H44            3.6157    -4.9528    -0.4971 H       
  45 H45           -2.2816    -6.1637     2.9311 H       
  46 H46           -0.5429    -6.3337     2.5900 H       
  47 H47           -1.1014    -6.0787     4.2608 H       
  48 H48           -3.2416    -3.8898     5.6276 H       
  49 H49           -2.7267    -5.4306     4.9002 H       
  50 H50           -1.5242    -4.3566     5.6545 H       
  51 H51            4.2914    -2.4306    -3.1591 H       
  52 H52            2.9433    -2.9320    -4.2077 H       
  53 H53            2.6121    -2.1070    -2.6656 H       
  54 H54            4.0718    -6.1283    -2.6966 H       
  55 H55            3.8434    -5.2389    -4.2214 H       
  56 H56            5.1705    -4.7940    -3.1219 H       
  57 H57            1.1273    -3.9941    -1.9750 H       
  58 H58            1.4586    -4.8191    -3.5170 H       
  59 H59            1.7489    -5.6620    -1.9764 H       
  60 H60            5.9282    -5.2940    -1.4098 H       
  61 H61            7.6906    -3.1193    -1.7858 H       
  62 H62            7.6720    -3.5333    -0.0548 H       
  63 H63            8.1784    -4.7466    -1.2547 H       
@<TRIPOS>BOND
   1    1    2 1
   2    1   14 ar
   3    1   18 ar
   4    2    3 1
   5    2    6 2
   6    3    4 1
   7    3    9 1
   8    4    5 2
   9    4   13 1
  10    5    6 1
  11    5    7 1
  12    7    8 am
  13    7   19 2
  14    8   20 1
  15    8   31 1
  16    9   10 1
  17    9   32 1
  18    9   33 1
  19   10   11 1
  20   10   34 1
  21   10   35 1
  22   11   12 1
  23   11   22 1
  24   11   36 1
  25   12   13 1
  26   12   21 1
  27   13   37 1
  28   13   38 1
  29   14   15 ar
  30   14   39 1
  31   15   16 ar
  32   15   40 1
  33   16   17 ar
  34   16   41 1
  35   17   18 ar
  36   17   42 1
  37   18   43 1
  38   20   23 1
  39   20   24 1
  40   20   44 1
  41   21   45 1
  42   21   46 1
  43   21   47 1
  44   22   48 1
  45   22   49 1
  46   22   50 1
  47   23   25 1
  48   23   26 1
  49   23   27 1
  50   24   28 am
  51   24   29 2
  52   25   51 1
  53   25   52 1
  54   25   53 1
  55   26   54 1
  56   26   55 1
  57   26   56 1
  58   27   57 1
  59   27   58 1
  60   27   59 1
  61   28   30 1
  62   28   60 1
  63   30   61 1
  64   30   62 1
  65   30   63 1

#	End of record

