#	Name: ASD03091694
#	Creating user name:	WinNT
#	Creation time:	15. 06. 2019 20:31

#	Modifying user name:	WinNT
#	Modification time:	15. 06. 2019 20:31

#	Program:	/corina/corina34_cracker 3.40 0067  02.08.2006

@<TRIPOS>MOLECULE
ASD03091694
  48   50    0    0    0
SMALL
NO_CHARGES


@<TRIPOS>ATOM
   1 Cl1            0.0000     0.0000     0.0000 Cl      
   2 H2             0.0000     1.3700     0.0000 H       
   3 C3            14.3055    10.6416     8.6850 C.ar    
   4 C4            14.3925     9.2480     8.8044 C.ar    
   5 C5            15.6406     8.6214     8.7646 C.ar    
   6 C6            16.7891     9.3729     8.6078 C.ar    
   7 C7            16.7044    10.7620     8.4886 C.ar    
   8 C8            15.4999    11.3867     8.5252 C.ar    
   9 S9            12.7786     8.5709     8.9910 S.3     
  10 C10           12.0465    10.1633     8.9038 C.2     
  11 C11           12.9829    11.1060     8.7510 C.2     
  12 C12           10.6045    10.4253     8.9913 C.2     
  13 O13           10.1880    11.5663     8.9200 O.2     
  14 N14            9.7421     9.4018     9.1507 N.am    
  15 N15            6.9562     9.0279    11.1816 N.3     
  16 C16            7.9310    10.0074    10.6831 C.3     
  17 C17            8.3032     9.6632     9.2380 C.3     
  18 C18            7.5266     8.4112     8.8116 C.3     
  19 C19            6.0255     8.6990     8.9409 C.3     
  20 C20            5.7163     9.0692    10.3942 C.3     
  21 C21            7.5270     7.6739    11.1931 C.3     
  22 C22            7.8884     7.2635     9.7628 C.3     
  23 N23           18.0336     8.7444     8.5689 N.am    
  24 S24           18.5019     7.9181     7.2124 S.o2    
  25 C25           18.5841     9.1849     5.9166 C.3     
  26 O26           19.8028     7.4396     7.5251 O.2     
  27 O27           17.4307     7.0184     6.9628 O.2     
  28 H28           15.7077     7.5475     8.8570 H       
  29 H29           17.6056    11.3445     8.3666 H       
  30 H30           15.4516    12.4615     8.4313 H       
  31 H31           12.7368    12.1549     8.6759 H       
  32 H32           10.0741     8.4922     9.2075 H       
  33 H33            7.4941    11.0054    10.7182 H       
  34 H34            8.8254     9.9796    11.3055 H       
  35 H35            8.0410    10.4957     8.5851 H       
  36 H36            7.7710     8.1511     7.7817 H       
  37 H37            5.7550     9.5283     8.2873 H       
  38 H38            5.4580     7.8112     8.6616 H       
  39 H39            5.0000     8.3583    10.8062 H       
  40 H40            5.2949    10.0738    10.4318 H       
  41 H41            8.4240     7.6626    11.8123 H       
  42 H42            6.7959     6.9744    11.5984 H       
  43 H43            7.3284     6.3700     9.4867 H       
  44 H44            8.9575     7.0606     9.7002 H       
  45 H45           18.6248     8.7913     9.3365 H       
  46 H46           19.2419     9.9921     6.2388 H       
  47 H47           18.9742     8.7423     5.0000 H       
  48 H48           17.5857     9.5814     5.7322 H       
@<TRIPOS>BOND
   1    1    2 1
   2    3    4 ar
   3    3    8 ar
   4    3   11 1
   5    4    5 ar
   6    4    9 1
   7    5    6 ar
   8    5   28 1
   9    6    7 ar
  10    6   23 1
  11    7    8 ar
  12    7   29 1
  13    8   30 1
  14    9   10 1
  15   10   11 2
  16   10   12 1
  17   11   31 1
  18   12   13 2
  19   12   14 am
  20   14   17 1
  21   14   32 1
  22   15   16 1
  23   15   20 1
  24   15   21 1
  25   16   17 1
  26   16   33 1
  27   16   34 1
  28   17   18 1
  29   17   35 1
  30   18   19 1
  31   18   22 1
  32   18   36 1
  33   19   20 1
  34   19   37 1
  35   19   38 1
  36   20   39 1
  37   20   40 1
  38   21   22 1
  39   21   41 1
  40   21   42 1
  41   22   43 1
  42   22   44 1
  43   23   24 am
  44   23   45 1
  45   24   25 1
  46   24   26 2
  47   24   27 2
  48   25   46 1
  49   25   47 1
  50   25   48 1

#	End of record

