#	Name: ASD01880729
#	Creating user name:	WinNT
#	Creation time:	15. 06. 2019 19:41

#	Modifying user name:	WinNT
#	Modification time:	15. 06. 2019 19:41

#	Program:	/corina/corina34_cracker 3.40 0067  02.08.2006

@<TRIPOS>MOLECULE
ASD01880729
  53   56    0    0    0
SMALL
NO_CHARGES


@<TRIPOS>ATOM
   1 N1            -0.0158     1.3132     0.0093 N.ar    
   2 C2             0.0021    -0.0041     0.0020 C.ar    
   3 N3             1.1309    -0.6841    -0.0120 N.ar    
   4 C4             2.3025    -0.0625    -0.0198 C.ar    
   5 C5             2.3323     1.3198    -0.0131 C.ar    
   6 C6             1.1185     2.0082     0.0022 C.ar    
   7 C7             3.6425     2.0643    -0.0211 C.3     
   8 O8             4.0446     2.3064    -1.3709 O.3     
   9 C9             5.2127     2.9720    -1.5558 C.ar    
  10 C10            5.6629     3.2409    -2.8447 C.ar    
  11 C11            6.8445     3.9146    -3.0304 C.ar    
  12 C12            7.6007     4.3337    -1.9308 C.ar    
  13 C13            7.1437     4.0614    -0.6384 C.ar    
  14 C14            5.9553     3.3895    -0.4577 C.ar    
  15 C15            7.5995     4.3562    -4.2594 C.3     
  16 N16            8.8059     5.0374    -3.7763 N.am    
  17 C17            8.8027     5.0222    -2.4324 C.2     
  18 O18            9.6684     5.5079    -1.7304 O.2     
  19 Br19           3.9123    -1.0546    -0.0393 Br      
  20 C20            7.9481     4.5063     0.5558 C.3     
  21 N21            1.0951     3.3935     0.0089 N.pl3   
  22 C22           -0.1857     4.1044     0.0250 C.3     
  23 C23            0.0646     5.5905     0.0295 C.ar    
  24 C24            0.1675     6.2777    -1.1655 C.ar    
  25 C25            0.3972     7.6408    -1.1613 C.ar    
  26 C26            0.5235     8.3168     0.0378 C.ar    
  27 C27            0.4196     7.6297     1.2329 C.ar    
  28 C28            0.1856     6.2673     1.2287 C.ar    
  29 C29            9.4920     7.0976    -4.9018 C.3     
  30 C30            9.8436     5.6354    -4.6201 C.3     
  31 H31           -0.9346    -0.5417     0.0081 H       
  32 H32            3.5234     3.0150     0.4986 H       
  33 H33            4.4027     1.4675     0.4829 H       
  34 H34            5.0838     2.9197    -3.6978 H       
  35 H35            5.6025     3.1797     0.5412 H       
  36 H36            7.8739     3.4903    -4.8618 H       
  37 H37            6.9905     5.0438    -4.8463 H       
  38 H38            7.6347     5.5072     0.8526 H       
  39 H39            7.7848     3.8144     1.3821 H       
  40 H40            9.0068     4.5190     0.2965 H       
  41 H41            1.9268     3.8926     0.0030 H       
  42 H42           -0.7616     3.8357    -0.8606 H       
  43 H43           -0.7439     3.8273     0.9192 H       
  44 H44            0.0689     5.7496    -2.1024 H       
  45 H45            0.4783     8.1776    -2.0950 H       
  46 H46            0.7036     9.3817     0.0411 H       
  47 H47            0.5186     8.1578     2.1697 H       
  48 H48            0.1045     5.7305     2.1624 H       
  49 H49            9.4293     7.6440    -3.9608 H       
  50 H50           10.2640     7.5425    -5.5296 H       
  51 H51            8.5321     7.1479    -5.4158 H       
  52 H52           10.8035     5.5851    -4.1061 H       
  53 H53            9.9063     5.0890    -5.5611 H       
@<TRIPOS>BOND
   1    1    2 ar
   2    1    6 ar
   3    2    3 ar
   4    2   31 1
   5    3    4 ar
   6    4    5 ar
   7    4   19 1
   8    5    6 ar
   9    5    7 1
  10    6   21 1
  11    7    8 1
  12    7   32 1
  13    7   33 1
  14    8    9 1
  15    9   10 ar
  16    9   14 ar
  17   10   11 ar
  18   10   34 1
  19   11   12 ar
  20   11   15 1
  21   12   13 ar
  22   12   17 1
  23   13   14 ar
  24   13   20 1
  25   14   35 1
  26   15   16 1
  27   15   36 1
  28   15   37 1
  29   16   17 am
  30   16   30 1
  31   17   18 2
  32   20   38 1
  33   20   39 1
  34   20   40 1
  35   21   22 1
  36   21   41 1
  37   22   23 1
  38   22   42 1
  39   22   43 1
  40   23   24 ar
  41   23   28 ar
  42   24   25 ar
  43   24   44 1
  44   25   26 ar
  45   25   45 1
  46   26   27 ar
  47   26   46 1
  48   27   28 ar
  49   27   47 1
  50   28   48 1
  51   29   30 1
  52   29   49 1
  53   29   50 1
  54   29   51 1
  55   30   52 1
  56   30   53 1

#	End of record

