#	Name: ASD01910628
#	Creating user name:	WinNT
#	Creation time:	15. 06. 2019 19:56

#	Modifying user name:	WinNT
#	Modification time:	15. 06. 2019 19:56

#	Program:	/corina/corina34_cracker 3.40 0067  02.08.2006

@<TRIPOS>MOLECULE
ASD01910628
  43   46    0    0    0
SMALL
NO_CHARGES


@<TRIPOS>ATOM
   1 C1            -0.6947     1.7989    -1.9523 C.ar    
   2 C2            -0.7604     0.4369    -1.7139 C.ar    
   3 C3             0.3185    -0.2031    -1.1216 C.ar    
   4 C4             1.4315     0.5499    -0.7875 C.ar    
   5 C5             1.4292     1.9180    -1.0566 C.ar    
   6 N6             0.3753     2.4918    -1.6250 N.ar    
   7 C7             2.6105     2.7370    -0.7058 C.2     
   8 N8             2.7550     4.0354    -0.8977 N.2     
   9 C9             3.9759     4.3350    -0.4281 C.2     
  10 N10            4.5072     3.2349     0.0173 N.2     
  11 O11            3.7409     2.3057    -0.1257 O.3     
  12 C12            4.6156     5.6995    -0.4191 C.3     
  13 C13            4.9332     6.1052     1.0220 C.3     
  14 C14            5.5529     7.5045     1.0350 C.3     
  15 C15            6.8612     7.4866     0.2382 C.3     
  16 N16            6.5891     6.9596    -1.1060 N.am    
  17 C17            5.9133     5.6611    -1.2323 C.3     
  18 C18            6.9525     7.6541    -2.2024 C.2     
  19 C19            7.5552     8.9954    -2.0609 C.ar    
  20 O20            6.7843     7.1768    -3.3077 O.2     
  21 C21            8.6302     9.1924    -1.1916 C.ar    
  22 C22            9.1892    10.4459    -1.0638 C.ar    
  23 C23            8.6859    11.5101    -1.7965 C.ar    
  24 C24            7.6184    11.3201    -2.6607 C.ar    
  25 C25            7.0557    10.0696    -2.8004 C.ar    
  26 F26            9.2374    12.7367    -1.6675 F       
  27 H27           -1.5314     2.2990    -2.4174 H       
  28 H28           -1.6434    -0.1222    -1.9861 H       
  29 H29            0.2909    -1.2647    -0.9252 H       
  30 H30            2.2891     0.0842    -0.3248 H       
  31 H31            3.9314     6.4250    -0.8590 H       
  32 H32            4.0147     6.1094     1.6088 H       
  33 H33            5.6363     5.3927     1.4533 H       
  34 H34            4.8603     8.2134     0.5812 H       
  35 H35            5.7572     7.8023     2.0634 H       
  36 H36            7.2556     8.4998     0.1606 H       
  37 H37            7.5867     6.8474     0.7414 H       
  38 H38            6.5615     4.8730    -0.8491 H       
  39 H39            5.6823     5.4698    -2.2802 H       
  40 H40            9.0227     8.3643    -0.6203 H       
  41 H41           10.0204    10.5995    -0.3916 H       
  42 H42            7.2300    12.1525    -3.2287 H       
  43 H43            6.2245     9.9226    -3.4740 H       
@<TRIPOS>BOND
   1    1    2 ar
   2    1    6 ar
   3    1   27 1
   4    2    3 ar
   5    2   28 1
   6    3    4 ar
   7    3   29 1
   8    4    5 ar
   9    4   30 1
  10    5    6 ar
  11    5    7 1
  12    7    8 2
  13    7   11 1
  14    8    9 1
  15    9   10 2
  16    9   12 1
  17   10   11 1
  18   12   13 1
  19   12   17 1
  20   12   31 1
  21   13   14 1
  22   13   32 1
  23   13   33 1
  24   14   15 1
  25   14   34 1
  26   14   35 1
  27   15   16 1
  28   15   36 1
  29   15   37 1
  30   16   17 1
  31   16   18 am
  32   17   38 1
  33   17   39 1
  34   18   19 1
  35   18   20 2
  36   19   21 ar
  37   19   25 ar
  38   21   22 ar
  39   21   40 1
  40   22   23 ar
  41   22   41 1
  42   23   24 ar
  43   23   26 1
  44   24   25 ar
  45   24   42 1
  46   25   43 1

#	End of record

