#	Name: ASD02039452
#	Creating user name:	WinNT
#	Creation time:	15. 06. 2019 20:18

#	Modifying user name:	WinNT
#	Modification time:	15. 06. 2019 20:18

#	Program:	/corina/corina34_cracker 3.40 0067  02.08.2006

@<TRIPOS>MOLECULE
ASD02039452
  48   51    0    0    0
SMALL
NO_CHARGES


@<TRIPOS>ATOM
   1 C1             0.1500     1.1862     0.0761 C.ar    
   2 C2             0.4318    -0.1674     0.1946 C.ar    
   3 C3             1.2615     2.2020     0.0150 C.3     
   4 N4             1.7337     2.3266    -1.3661 N.am    
   5 C5             1.2464     3.3010    -2.1596 C.2     
   6 C6             0.1674     4.1775    -1.6718 C.2     
   7 C7            -0.4871     5.1303    -2.3962 C.2     
   8 N8            -0.3608     4.1800    -0.4212 N.2     
   9 C9            -1.2922     5.0873    -0.3595 C.2     
  10 N10           -1.3968     5.6968    -1.5690 N.pl3   
  11 O11            1.6974     3.4567    -3.2784 O.2     
  12 C12           -2.3267     6.7744    -1.9158 C.3     
  13 C13            2.7357     1.3922    -1.8848 C.3     
  14 C14           -0.6100    -1.0749     0.2477 C.ar    
  15 C15           -2.1744     0.6129     0.0634 C.ar    
  16 C16           -1.1746     1.5821     0.0095 C.ar    
  17 C17           -3.5982     1.0205    -0.0067 C.ar    
  18 C18           -4.6061     0.0562     0.0466 C.ar    
  19 C19           -5.9318     0.4424    -0.0193 C.ar    
  20 C20           -6.2590     1.7827    -0.1384 C.ar    
  21 C21           -5.2604     2.7427    -0.1920 C.ar    
  22 C22           -3.9349     2.3684    -0.1204 C.ar    
  23 N23           -1.8627    -0.6711     0.1873 N.ar    
  24 C24            2.3152     0.7015    -3.1929 C.3     
  25 C25            3.7686     0.8803    -3.6625 C.3     
  26 C26            3.8517     2.0727    -2.6950 C.3     
  27 F27           -4.2868    -1.2514     0.1619 F       
  28 F28           -7.5558     2.1559    -0.2029 F       
  29 H29            1.4552    -0.5088     0.2445 H       
  30 H30            0.8912     3.1670     0.3609 H       
  31 H31            2.0844     1.8789     0.6526 H       
  32 H32           -0.3127     5.3844    -3.4313 H       
  33 H33           -1.8878     5.3164     0.5118 H       
  34 H34           -1.8593     7.7376    -1.7111 H       
  35 H35           -2.5785     6.7104    -2.9744 H       
  36 H36           -3.2342     6.6770    -1.3200 H       
  37 H37            3.1042     0.7023    -1.1257 H       
  38 H38           -0.3940    -2.1291     0.3395 H       
  39 H39           -1.4295     2.6267    -0.0910 H       
  40 H40           -6.7131    -0.3020     0.0218 H       
  41 H41           -5.5212     3.7866    -0.2856 H       
  42 H42           -3.1585     3.1179    -0.1624 H       
  43 H43            2.0236    -0.3406    -3.0622 H       
  44 H44            1.5942     1.2738    -3.7766 H       
  45 H45            4.4207     0.0505    -3.3898 H       
  46 H46            3.8569     1.1622    -4.7117 H       
  47 H47            3.5507     3.0199    -3.1427 H       
  48 H48            4.8005     2.1376    -2.1625 H       
@<TRIPOS>BOND
   1    1    2 ar
   2    1    3 1
   3    1   16 ar
   4    2   14 ar
   5    2   29 1
   6    3    4 1
   7    3   30 1
   8    3   31 1
   9    4    5 am
  10    4   13 1
  11    5    6 1
  12    5   11 2
  13    6    7 2
  14    6    8 1
  15    7   10 1
  16    7   32 1
  17    8    9 2
  18    9   10 1
  19    9   33 1
  20   10   12 1
  21   12   34 1
  22   12   35 1
  23   12   36 1
  24   13   24 1
  25   13   26 1
  26   13   37 1
  27   14   23 ar
  28   14   38 1
  29   15   16 ar
  30   15   17 1
  31   15   23 ar
  32   16   39 1
  33   17   18 ar
  34   17   22 ar
  35   18   19 ar
  36   18   27 1
  37   19   20 ar
  38   19   40 1
  39   20   21 ar
  40   20   28 1
  41   21   22 ar
  42   21   41 1
  43   22   42 1
  44   24   25 1
  45   24   43 1
  46   24   44 1
  47   25   26 1
  48   25   45 1
  49   25   46 1
  50   26   47 1
  51   26   48 1

#	End of record

