#	Name: ASD01915345
#	Creating user name:	WinNT
#	Creation time:	15. 06. 2019 20:05

#	Modifying user name:	WinNT
#	Modification time:	15. 06. 2019 20:05

#	Program:	/corina/corina34_cracker 3.40 0067  02.08.2006

@<TRIPOS>MOLECULE
ASD01915345
  41   44    0    0    0
SMALL
NO_CHARGES


@<TRIPOS>ATOM
   1 C1             0.0729     0.5615    -0.0065 C.ar    
   2 C2             0.4050    -0.7697     0.2416 C.ar    
   3 N3            -0.5565    -1.6745     0.4504 N.ar    
   4 C4            -1.8317    -1.3606     0.4324 C.ar    
   5 C5            -2.2447    -0.0614     0.1928 C.ar    
   6 C6            -1.2960     0.9226    -0.0254 C.ar    
   7 C7             1.2549     1.3938    -0.2082 C.2     
   8 C8             2.4102     0.7391    -0.1194 C.2     
   9 S9             2.1544    -0.9609     0.2202 S.3     
  10 C10            1.1752     2.8468    -0.4890 C.ar    
  11 C11            1.4672     3.7703     0.5141 C.ar    
  12 S12            3.9938     1.4860    -0.3174 S.o2    
  13 O13            3.8526     2.8399     0.0904 O.2     
  14 O14            4.9340     0.5932     0.2641 O.2     
  15 C15            4.3421     1.5202    -2.0442 C.ar    
  16 C16            4.0917     2.6653    -2.7771 C.ar    
  17 C17            4.8710     0.4038    -2.6646 C.ar    
  18 C18            5.1449     0.4301    -4.0191 C.ar    
  19 C19            4.8892     1.5740    -4.7541 C.ar    
  20 C20            4.3643     2.6926    -4.1318 C.ar    
  21 C21            1.3914     5.1220     0.2474 C.ar    
  22 C22            1.0261     5.5618    -1.0136 C.ar    
  23 C23            0.7351     4.6491    -2.0131 C.ar    
  24 C24            0.8134     3.2953    -1.7587 C.ar    
  25 Cl25           0.9320     7.2638    -1.3423 Cl      
  26 Cl26           5.2330     1.6079    -6.4554 Cl      
  27 O27           -1.6706     2.2051    -0.2629 O.3     
  28 C28           -3.0729     2.4797    -0.2752 C.3     
  29 H29           -2.5703    -2.1289     0.6071 H       
  30 H30           -3.2966     0.1829     0.1805 H       
  31 H31            1.7519     3.4283     1.4981 H       
  32 H32            3.6826     3.5387    -2.2910 H       
  33 H33            5.0706    -0.4891    -2.0907 H       
  34 H34            5.5588    -0.4419    -4.5035 H       
  35 H35            4.1642     3.5857    -4.7051 H       
  36 H36            1.6170     5.8381     1.0237 H       
  37 H37            0.4503     4.9975    -2.9949 H       
  38 H38            0.5862     2.5841    -2.5392 H       
  39 H39           -3.5017     2.2240     0.6937 H       
  40 H40           -3.2340     3.5389    -0.4757 H       
  41 H41           -3.5527     1.8856    -1.0531 H       
@<TRIPOS>BOND
   1    1    2 ar
   2    1    7 1
   3    1    6 ar
   4    2    3 ar
   5    2    9 1
   6    3    4 ar
   7    4    5 ar
   8    4   29 1
   9    5    6 ar
  10    5   30 1
  11    6   27 1
  12    7    8 2
  13    7   10 1
  14    8    9 1
  15    8   12 1
  16   10   11 ar
  17   10   24 ar
  18   11   21 ar
  19   11   31 1
  20   12   13 2
  21   12   14 2
  22   12   15 1
  23   15   16 ar
  24   15   17 ar
  25   16   20 ar
  26   16   32 1
  27   17   18 ar
  28   17   33 1
  29   18   19 ar
  30   18   34 1
  31   19   20 ar
  32   19   26 1
  33   20   35 1
  34   21   22 ar
  35   21   36 1
  36   22   23 ar
  37   22   25 1
  38   23   24 ar
  39   23   37 1
  40   24   38 1
  41   27   28 1
  42   28   39 1
  43   28   40 1
  44   28   41 1

#	End of record

