#	Name: ASD01917603
#	Creating user name:	WinNT
#	Creation time:	15. 06. 2019 20:09

#	Modifying user name:	WinNT
#	Modification time:	15. 06. 2019 20:09

#	Program:	/corina/corina34_cracker 3.40 0067  02.08.2006

@<TRIPOS>MOLECULE
ASD01917603
  30   30    0    0    0
SMALL
NO_CHARGES


@<TRIPOS>ATOM
   1 C1            -0.0167     1.3774     0.0096 C.ar    
   2 C2             0.0021    -0.0041     0.0020 C.ar    
   3 C3             1.2229    -0.6645    -0.0132 C.ar    
   4 C4             2.3846     0.0924    -0.0202 C.ar    
   5 C5             2.2916     1.4704    -0.0119 C.ar    
   6 N6             1.1116     2.0685     0.0026 N.ar    
   7 Br7           -1.6157    -0.9832     0.0128 Br      
   8 N8             1.0554     3.4684     0.0101 N.pl3   
   9 H9            -0.9624     1.8988     0.0169 H       
  10 H10            1.2668    -1.7436    -0.0190 H       
  11 H11            3.3508    -0.3900    -0.0316 H       
  12 H12            3.1923     2.0663    -0.0169 H       
  13 H13            0.1965     3.9192     0.0204 H       
  14 H14            1.8752     3.9868     0.0051 H       
  15 C15           10.6666    12.3501     5.0727 C.ar    
  16 C16           10.6854    10.9627     5.0650 C.ar    
  17 C17           11.8914    10.2896     5.0499 C.ar    
  18 C18           13.0795    10.9973     5.0428 C.ar    
  19 C19           13.0634    12.3796     5.0508 C.ar    
  20 C20           11.8596    13.0576     5.0651 C.ar    
  21 O21            9.4812    13.0147     5.0819 O.3     
  22 N22           14.3705    10.2735     5.0271 N.pl3   
  23 O23           14.3859     9.0556     5.0204 O.2     
  24 O24           15.4176    10.8957     5.0208 O.2     
  25 N25            9.4141    10.2046     5.0736 N.pl3   
  26 O26            9.4312     8.9868     5.0669 O.2     
  27 O27            8.3508    10.7987     5.0873 O.2     
  28 H28           11.9066     9.2098     5.0439 H       
  29 H29           13.9926    12.9300     5.0456 H       
  30 H30           11.8476    14.1376     5.0710 H       
@<TRIPOS>BOND
   1    1    2 ar
   2    1    6 ar
   3    1    9 1
   4    2    3 ar
   5    2    7 1
   6    3    4 ar
   7    3   10 1
   8    4    5 ar
   9    4   11 1
  10    5    6 ar
  11    5   12 1
  12    6    8 1
  13    8   13 1
  14    8   14 1
  15   15   16 ar
  16   15   20 ar
  17   15   21 1
  18   16   17 ar
  19   16   25 1
  20   17   18 ar
  21   17   28 1
  22   18   19 ar
  23   18   22 1
  24   19   20 ar
  25   19   29 1
  26   20   30 1
  27   22   23 2
  28   22   24 2
  29   25   26 2
  30   25   27 2

#	End of record

