#	Name: ASD00431451
#	Creating user name:	WinNT
#	Creation time:	15. 06. 2019 18:35

#	Modifying user name:	WinNT
#	Modification time:	15. 06. 2019 18:35

#	Program:	/corina/corina34_cracker 3.40 0067  02.08.2006

@<TRIPOS>MOLECULE
ASD00431451
  44   47    0    0    0
SMALL
NO_CHARGES


@<TRIPOS>ATOM
   1 C1            -0.8202     7.8755     5.7399 C.3     
   2 C2            -1.7802     7.7746     4.5530 C.3     
   3 O3             1.1725     9.1399     4.7852 O.3     
   4 N4             2.3165     8.9505     4.4427 N.2     
   5 C5             2.6633     7.6951     4.6082 C.2     
   6 C6             1.5175     7.0368     5.1420 C.2     
   7 C7             0.5920     8.0169     5.2332 C.2     
   8 S8             4.4138     5.3976     4.5341 S.3     
   9 C9             5.9839     5.7120     3.9357 C.2     
  10 N10            6.1015     6.9639     3.6157 N.2     
  11 C11            5.0489     7.7305     3.7980 C.2     
  12 C12            3.9748     7.0882     4.3031 C.2     
  13 O13            6.9650     4.7865     3.8131 O.3     
  14 C14            8.1954     5.2092     3.4209 C.ar    
  15 C15            9.0246     5.8618     4.3209 C.ar    
  16 C16           10.2793     6.2913     3.9178 C.ar    
  17 C17           10.7028     6.0676     2.6151 C.ar    
  18 C18            9.8749     5.4177     1.7202 C.ar    
  19 C19            8.6257     4.9833     2.1210 C.ar    
  20 O20           11.0939     6.9314     4.7973 O.3     
  21 C21           12.3728     7.3461     4.3133 C.3     
  22 C22           13.1419     8.0434     5.4372 C.3     
  23 C23           14.5863     8.4598     5.1522 C.3     
  24 C24           13.4883     9.5213     5.2450 C.3     
  25 N25           -1.1684     9.0484     6.5530 N.3     
  26 H26           -0.8992     6.9749     6.3488 H       
  27 H27           -1.7012     8.6752     3.9441 H       
  28 H28           -1.5219     6.9043     3.9497 H       
  29 H29           -2.8017     7.6723     4.9195 H       
  30 H30            1.4131     5.9960     5.4111 H       
  31 H31            5.0443     8.7848     3.5638 H       
  32 H32            8.6931     6.0353     5.3340 H       
  33 H33           11.6804     6.4021     2.3007 H       
  34 H34           10.2062     5.2449     0.7069 H       
  35 H35            7.9822     4.4712     1.4209 H       
  36 H36           12.9336     6.4746     3.9757 H       
  37 H37           12.2397     8.0373     3.4810 H       
  38 H38           12.9045     7.7090     6.4471 H       
  39 H39           15.2991     8.3997     5.9747 H       
  40 H40           14.9887     8.2370     4.1640 H       
  41 H41           13.1683     9.9968     4.3179 H       
  42 H42           13.4786    10.1595     6.1286 H       
  43 H43           -1.0408     9.9018     6.0299 H       
  44 H44           -2.1114     8.9775     6.9048 H       
@<TRIPOS>BOND
   1    1    2 1
   2    1    7 1
   3    1   25 1
   4    1   26 1
   5    2   27 1
   6    2   28 1
   7    2   29 1
   8    3    4 1
   9    3    7 1
  10    4    5 2
  11    5    6 1
  12    5   12 1
  13    6    7 2
  14    6   30 1
  15    8    9 1
  16    8   12 1
  17    9   10 2
  18    9   13 1
  19   10   11 1
  20   11   12 2
  21   11   31 1
  22   13   14 1
  23   14   15 ar
  24   14   19 ar
  25   15   16 ar
  26   15   32 1
  27   16   17 ar
  28   16   20 1
  29   17   18 ar
  30   17   33 1
  31   18   19 ar
  32   18   34 1
  33   19   35 1
  34   20   21 1
  35   21   22 1
  36   21   36 1
  37   21   37 1
  38   22   23 1
  39   22   24 1
  40   22   38 1
  41   23   24 1
  42   23   39 1
  43   23   40 1
  44   24   41 1
  45   24   42 1
  46   25   43 1
  47   25   44 1

#	End of record

