#	Name: ASD03540538
#	Creating user name:	WinNT
#	Creation time:	15. 06. 2019 20:43

#	Modifying user name:	WinNT
#	Modification time:	15. 06. 2019 20:43

#	Program:	/corina/corina34_cracker 3.40 0067  02.08.2006

@<TRIPOS>MOLECULE
ASD03540538
  75   78    0    0    0
SMALL
NO_CHARGES


@<TRIPOS>ATOM
   1 C1             3.1748    -8.8535    -1.8029 C.2     
   2 C2             2.4198    -7.6671    -1.3504 C.ar    
   3 C3             1.0264    -7.7115    -1.2691 C.ar    
   4 C4             0.3277    -6.6004    -0.8454 C.ar    
   5 C5             1.0044    -5.4432    -0.5017 C.ar    
   6 C6             2.3847    -5.3921    -0.5804 C.ar    
   7 C7             3.0964    -6.4983    -0.9967 C.ar    
   8 O8             2.5946    -9.9009    -2.0078 O.2     
   9 O9             4.5058    -8.7724    -1.9936 O.3     
  10 C10            0.2877    -8.9705    -1.6438 C.3     
  11 C11            0.2342    -4.2329    -0.0401 C.3     
  12 N12           -3.3310    -4.6162     0.8048 N.am    
  13 C13           -2.1766    -4.2637     0.2141 C.2     
  14 N14           -0.9766    -4.6636     0.6631 N.am    
  15 C15           -0.8648    -5.4563     1.7512 C.2     
  16 C16           -2.1001    -5.8745     2.4393 C.ar    
  17 C17           -2.0685    -6.6891     3.5640 C.ar    
  18 C18           -3.2675    -7.0544     4.1748 C.ar    
  19 C19           -4.4865    -6.6016     3.6551 C.ar    
  20 C20           -4.5171    -5.8003     2.5488 C.ar    
  21 C21           -3.3326    -5.4262     1.9269 C.ar    
  22 O22            0.2253    -5.8157     2.1522 O.2     
  23 O23           -2.2210    -3.5511    -0.7698 O.2     
  24 C24            1.1057    -3.4040     0.9056 C.3     
  25 C25           -3.2520    -7.9200     5.3708 C.2     
  26 N26           -4.4105    -8.2736     5.9618 N.am    
  27 O27           -2.1942    -8.3139     5.8224 O.2     
  28 C28           -4.3951    -9.1325     7.1485 C.3     
  29 C29           -5.8087    -9.3765     7.6104 C.ar    
  30 C30           -6.5178   -10.4578     7.1210 C.ar    
  31 C31           -7.8137   -10.6836     7.5428 C.ar    
  32 C32           -8.4036    -9.8243     8.4584 C.ar    
  33 C33           -7.6900    -8.7400     8.9480 C.ar    
  34 C34           -6.3923    -8.5218     8.5273 C.ar    
  35 O35           -9.6785   -10.0440     8.8746 O.3     
  36 C36          -10.2214    -9.1186     9.8185 C.3     
  37 C37            5.1826    -9.9775    -2.4387 C.3     
  38 C38            6.6774    -9.6933    -2.5989 C.3     
  39 N39            7.2602    -9.3824    -1.2867 N.3     
  40 C40            7.2201   -10.5544    -0.4019 C.3     
  41 C41            8.6316    -8.8751    -1.4266 C.3     
  42 H42           -0.7499    -6.6333    -0.7820 H       
  43 H43            2.9065    -4.4857    -0.3114 H       
  44 H44            4.1742    -6.4587    -1.0531 H       
  45 H45            0.2802    -9.6538    -0.7946 H       
  46 H46           -0.7372    -8.7221    -1.9193 H       
  47 H47            0.7858    -9.4462    -2.4886 H       
  48 H48           -0.0428    -3.6276    -0.9032 H       
  49 H49           -4.1722    -4.2966     0.4426 H       
  50 H50           -1.1258    -7.0360     3.9608 H       
  51 H51           -5.4113    -6.8887     4.1331 H       
  52 H52           -5.4635    -5.4577     2.1570 H       
  53 H53            0.5486    -2.5286     1.2395 H       
  54 H54            1.3827    -4.0093     1.7687 H       
  55 H55            2.0066    -3.0835     0.3824 H       
  56 H56           -5.2545    -7.9593     5.6015 H       
  57 H57           -3.9240   -10.0841     6.9022 H       
  58 H58           -3.8323    -8.6435     7.9437 H       
  59 H59           -6.0583   -11.1263     6.4080 H       
  60 H60           -8.3673   -11.5282     7.1599 H       
  61 H61           -8.1470    -8.0696     9.6608 H       
  62 H62           -5.8347    -7.6806     8.9117 H       
  63 H63          -11.2425    -9.4089    10.0659 H       
  64 H64           -9.6131    -9.1232    10.7230 H       
  65 H65          -10.2227    -8.1178     9.3866 H       
  66 H66            5.0400   -10.7677    -1.7016 H       
  67 H67            4.7684   -10.2943    -3.3958 H       
  68 H68            7.1713   -10.5703    -3.0172 H       
  69 H69            6.8162    -8.8443    -3.2684 H       
  70 H70            7.7873   -11.3691    -0.8521 H       
  71 H71            7.6576   -10.2966     0.5625 H       
  72 H72            6.1856   -10.8671    -0.2598 H       
  73 H73            8.6234    -7.9669    -2.0293 H       
  74 H74            9.0392    -8.6529    -0.4404 H       
  75 H75            9.2500    -9.6289    -1.9139 H       
@<TRIPOS>BOND
   1    1    2 1
   2    1    8 2
   3    1    9 1
   4    2    3 ar
   5    2    7 ar
   6    3    4 ar
   7    3   10 1
   8    4    5 ar
   9    4   42 1
  10    5    6 ar
  11    5   11 1
  12    6    7 ar
  13    6   43 1
  14    7   44 1
  15    9   37 1
  16   10   45 1
  17   10   46 1
  18   10   47 1
  19   11   14 1
  20   11   24 1
  21   11   48 1
  22   12   13 am
  23   12   21 1
  24   12   49 1
  25   13   14 am
  26   13   23 2
  27   14   15 am
  28   15   16 1
  29   15   22 2
  30   16   17 ar
  31   16   21 ar
  32   17   18 ar
  33   17   50 1
  34   18   19 ar
  35   18   25 1
  36   19   20 ar
  37   19   51 1
  38   20   21 ar
  39   20   52 1
  40   24   53 1
  41   24   54 1
  42   24   55 1
  43   25   26 am
  44   25   27 2
  45   26   28 1
  46   26   56 1
  47   28   29 1
  48   28   57 1
  49   28   58 1
  50   29   30 ar
  51   29   34 ar
  52   30   31 ar
  53   30   59 1
  54   31   32 ar
  55   31   60 1
  56   32   33 ar
  57   32   35 1
  58   33   34 ar
  59   33   61 1
  60   34   62 1
  61   35   36 1
  62   36   63 1
  63   36   64 1
  64   36   65 1
  65   37   38 1
  66   37   66 1
  67   37   67 1
  68   38   39 1
  69   38   68 1
  70   38   69 1
  71   39   40 1
  72   39   41 1
  73   40   70 1
  74   40   71 1
  75   40   72 1
  76   41   73 1
  77   41   74 1
  78   41   75 1

#	End of record

