#	Name: ASD01940560
#	Creating user name:	WinNT
#	Creation time:	15. 06. 2019 20:12

#	Modifying user name:	WinNT
#	Modification time:	15. 06. 2019 20:12

#	Program:	/corina/corina34_cracker 3.40 0067  02.08.2006

@<TRIPOS>MOLECULE
ASD01940560
  44   44    0    0    0
SMALL
NO_CHARGES


@<TRIPOS>ATOM
   1 C1            -0.0180     1.4746     0.0101 C.2     
   2 C2             0.0021    -0.0041     0.0020 C.ar    
   3 C3             1.2196    -0.6862    -0.0133 C.ar    
   4 C4             1.2390    -2.0733    -0.0209 C.ar    
   5 C5             0.0489    -2.7869    -0.0129 C.ar    
   6 C6            -1.1713    -2.1111     0.0024 C.ar    
   7 C7            -1.1945    -0.7179     0.0154 C.ar    
   8 O8             1.0263     2.0966     0.0035 O.2     
   9 N9            -1.1942     2.1326     0.0193 N.am    
  10 C10           -1.2141     3.5974     0.0274 C.3     
  11 C11           -2.6633     4.0877     0.0369 C.3     
  12 O12           -3.2912     3.6944     1.2588 O.3     
  13 C13           -4.6554     4.1052     1.3698 C.3     
  14 C14           -5.2230     3.6326     2.7097 C.3     
  15 O15           -4.5407     4.2951     3.7763 O.3     
  16 C16           -4.9972     3.9229     5.0782 C.3     
  17 C17           -4.2011     4.6894     6.1363 C.3     
  18 O18           -4.4800     6.0863     6.0230 O.3     
  19 C19           -3.7828     6.8970     6.9711 C.3     
  20 C20           -2.3989    -2.8484     0.0098 C.1     
  21 C21           -3.4053    -3.4529     0.0158 C.1     
  22 N22            2.4596    -2.7534    -0.0371 N.pl3   
  23 H23            2.1475    -0.1336    -0.0195 H       
  24 H24            0.0674    -3.8667    -0.0188 H       
  25 H25           -2.1379    -0.1925     0.0318 H       
  26 H26           -2.0276     1.6362     0.0206 H       
  27 H27           -0.7010     3.9628     0.9169 H       
  28 H28           -0.7094     3.9725    -0.8630 H       
  29 H29           -2.6798     5.1744    -0.0467 H       
  30 H30           -3.2004     3.6504    -0.8048 H       
  31 H31           -4.7132     5.1923     1.3139 H       
  32 H32           -5.2338     3.6683     0.5558 H       
  33 H33           -6.2863     3.8677     2.7571 H       
  34 H34           -5.0845     2.5555     2.8033 H       
  35 H35           -6.0558     4.1639     5.1748 H       
  36 H36           -4.8540     2.8518     5.2210 H       
  37 H37           -4.4868     4.3412     7.1289 H       
  38 H38           -3.1354     4.5181     5.9840 H       
  39 H39           -4.0598     6.5946     7.9810 H       
  40 H40           -2.7085     6.7715     6.8360 H       
  41 H41           -4.0483     7.9432     6.8193 H       
  42 H42           -4.3054    -3.9935     0.0212 H       
  43 H43            3.2921    -2.2556    -0.0431 H       
  44 H44            2.4743    -3.7233    -0.0425 H       
@<TRIPOS>BOND
   1    1    2 1
   2    1    8 2
   3    1    9 am
   4    2    3 ar
   5    2    7 ar
   6    3    4 ar
   7    3   23 1
   8    4    5 ar
   9    4   22 1
  10    5    6 ar
  11    5   24 1
  12    6    7 ar
  13    6   20 1
  14    7   25 1
  15    9   10 1
  16    9   26 1
  17   10   11 1
  18   10   27 1
  19   10   28 1
  20   11   12 1
  21   11   29 1
  22   11   30 1
  23   12   13 1
  24   13   14 1
  25   13   31 1
  26   13   32 1
  27   14   15 1
  28   14   33 1
  29   14   34 1
  30   15   16 1
  31   16   17 1
  32   16   35 1
  33   16   36 1
  34   17   18 1
  35   17   37 1
  36   17   38 1
  37   18   19 1
  38   19   39 1
  39   19   40 1
  40   19   41 1
  41   20   21 3
  42   21   42 1
  43   22   43 1
  44   22   44 1

#	End of record

