#	Name: ASD01816625
#	Creating user name:	WinNT
#	Creation time:	15. 06. 2019 19:35

#	Modifying user name:	WinNT
#	Modification time:	15. 06. 2019 19:35

#	Program:	/corina/corina34_cracker 3.40 0067  02.08.2006

@<TRIPOS>MOLECULE
ASD01816625
  65   70    0    0    0
SMALL
NO_CHARGES


@<TRIPOS>ATOM
   1 C1            -0.0167     1.3812     0.0096 C.ar    
   2 C2             0.0021    -0.0041     0.0020 C.ar    
   3 C3             1.1984    -0.6908    -0.0131 C.ar    
   4 C4             2.4015     0.0061    -0.0204 C.ar    
   5 C5             2.3789     1.4106    -0.0127 C.ar    
   6 C6             1.1664     2.0916     0.0022 C.ar    
   7 N7             3.6054    -0.6770    -0.0347 N.pl3   
   8 C8             4.7971    -0.0584    -0.0423 C.2     
   9 C9             4.9001     1.3105    -0.0364 C.2     
  10 C10            3.6673     2.1304    -0.0207 C.2     
  11 C11            5.9972     2.2731    -0.0422 C.2     
  12 N12            5.4244     3.4961    -0.0313 N.am    
  13 N13            4.0322     3.3795    -0.0185 N.2     
  14 O14            7.1917     2.0232    -0.0541 O.2     
  15 C15            6.1581     4.7641    -0.0316 C.3     
  16 C16            3.5781    -2.1418    -0.0413 C.3     
  17 C17            3.5556    -2.6374    -1.4643 C.ar    
  18 C18            4.7426    -2.8868    -2.1276 C.ar    
  19 C19            4.7233    -3.3418    -3.4324 C.ar    
  20 C20            3.5145    -3.5477    -4.0753 C.ar    
  21 C21            2.3262    -3.2975    -3.4100 C.ar    
  22 C22            2.3480    -2.8476    -2.1035 C.ar    
  23 F23            3.4943    -3.9920    -5.3510 F       
  24 C24            5.7782     5.5728    -1.2741 C.3     
  25 C25            6.5730     6.8823    -1.2890 C.3     
  26 N26            6.3484     7.5862    -0.0190 N.am    
  27 C27            6.5963     6.8694     1.2394 C.3     
  28 C28            5.8013     5.5600     1.2259 C.3     
  29 C29            5.9236     8.8652    -0.0085 C.2     
  30 O30            5.7225     9.4472    -1.0561 O.2     
  31 O31            5.7219     9.4980     1.1626 O.3     
  32 C32            5.2642    10.8744     1.0979 C.3     
  33 C33            5.0952    11.4138     2.4949 C.ar    
  34 C34            6.1538    12.0387     3.1272 C.ar    
  35 C35            5.9988    12.5334     4.4087 C.ar    
  36 C36            4.7852    12.4037     5.0576 C.ar    
  37 C37            3.7263    11.7797     4.4249 C.ar    
  38 C38            3.8800    11.2888     3.1418 C.ar    
  39 H39           -0.9602     1.9068     0.0170 H       
  40 H40           -0.9288    -0.5516     0.0083 H       
  41 H41            1.2005    -1.7708    -0.0189 H       
  42 H42            1.1508     3.1714     0.0084 H       
  43 H43            5.6984    -0.6535    -0.0530 H       
  44 H44            7.2295     4.5637    -0.0425 H       
  45 H45            4.4658    -2.5240     0.4626 H       
  46 H46            2.6862    -2.4908     0.4791 H       
  47 H47            5.6854    -2.7258    -1.6260 H       
  48 H48            5.6507    -3.5362    -3.9505 H       
  49 H49            1.3827    -3.4578    -3.9105 H       
  50 H50            1.4213    -2.6524    -1.5843 H       
  51 H51            6.0110     4.9957    -2.1690 H       
  52 H52            4.7113     5.7950    -1.2514 H       
  53 H53            7.6348     6.6640    -1.4030 H       
  54 H54            6.2349     7.5055    -2.1169 H       
  55 H55            7.6601     6.6500     1.3315 H       
  56 H56            6.2738     7.4841     2.0797 H       
  57 H57            4.7342     5.7823     1.2251 H       
  58 H58            6.0506     4.9738     2.1104 H       
  59 H59            5.9980    11.4766     0.5622 H       
  60 H60            4.3089    10.9154     0.5746 H       
  61 H61            7.1020    12.1400     2.6203 H       
  62 H62            6.8261    13.0210     4.9030 H       
  63 H63            4.6643    12.7897     6.0590 H       
  64 H64            2.7782    11.6781     4.9320 H       
  65 H65            3.0527    10.8013     2.6475 H       
@<TRIPOS>BOND
   1    1    2 ar
   2    1    6 ar
   3    1   39 1
   4    2    3 ar
   5    2   40 1
   6    3    4 ar
   7    3   41 1
   8    4    5 ar
   9    4    7 1
  10    5    6 ar
  11    5   10 1
  12    6   42 1
  13    7    8 1
  14    7   16 1
  15    8    9 2
  16    8   43 1
  17    9   10 1
  18    9   11 1
  19   10   13 2
  20   11   12 am
  21   11   14 2
  22   12   13 1
  23   12   15 1
  24   15   24 1
  25   15   28 1
  26   15   44 1
  27   16   17 1
  28   16   45 1
  29   16   46 1
  30   17   18 ar
  31   17   22 ar
  32   18   19 ar
  33   18   47 1
  34   19   20 ar
  35   19   48 1
  36   20   21 ar
  37   20   23 1
  38   21   22 ar
  39   21   49 1
  40   22   50 1
  41   24   25 1
  42   24   51 1
  43   24   52 1
  44   25   26 1
  45   25   53 1
  46   25   54 1
  47   26   27 1
  48   26   29 am
  49   27   28 1
  50   27   55 1
  51   27   56 1
  52   28   57 1
  53   28   58 1
  54   29   30 2
  55   29   31 1
  56   31   32 1
  57   32   33 1
  58   32   59 1
  59   32   60 1
  60   33   34 ar
  61   33   38 ar
  62   34   35 ar
  63   34   61 1
  64   35   36 ar
  65   35   62 1
  66   36   37 ar
  67   36   63 1
  68   37   38 ar
  69   37   64 1
  70   38   65 1

#	End of record

