#	Name: ASD03331549
#	Creating user name:	WinNT
#	Creation time:	15. 06. 2019 20:39

#	Modifying user name:	WinNT
#	Modification time:	15. 06. 2019 20:39

#	Program:	/corina/corina34_cracker 3.40 0067  02.08.2006

@<TRIPOS>MOLECULE
ASD03331549
  58   60    0    0    0
SMALL
NO_CHARGES


@<TRIPOS>ATOM
   1 C1            -0.0086     0.4887    -0.3744 C.ar    
   2 C2            -0.0046    -0.6223    -1.2216 C.ar    
   3 C3             1.1659     1.3855    -0.3212 C.2     
   4 N4             1.1288     2.7502    -0.3673 N.pl3   
   5 C5             2.4128     3.1923    -0.3052 C.2     
   6 C6             3.2126     2.0947    -0.2063 C.2     
   7 N7             2.4166     1.0029    -0.2160 N.2     
   8 C8            -0.0702     3.5884    -0.4548 C.3     
   9 C9             0.2807     4.9085    -1.1448 C.3     
  10 C10            0.7310     5.9337    -0.1052 C.3     
  11 C11            1.9838     5.4476     0.6167 C.3     
  12 C12            2.8480     4.6333    -0.3512 C.3     
  13 C13            4.6824     2.0974    -0.1021 C.2     
  14 O14            5.2899     3.1510    -0.0994 O.2     
  15 N15            5.3535     0.9323    -0.0098 N.am    
  16 C16            6.8148     0.9349     0.0939 C.3     
  17 C17            7.3572    -0.3739    -0.4198 C.2     
  18 C18            6.5580     0.0329     2.4097 C.3     
  19 N19            8.5950    -0.4287    -0.9503 N.am    
  20 O20            6.6799    -1.3779    -0.3560 O.2     
  21 C21            7.2220     1.1164     1.5575 C.3     
  22 C22            8.7427     1.0023     1.6818 C.3     
  23 C23            6.7725     2.4953     2.0447 C.3     
  24 C24            9.0803    -1.6738    -1.5505 C.3     
  25 C25           -1.1051    -1.4572    -1.2673 C.ar    
  26 C26           -2.2102    -1.1938    -0.4759 C.ar    
  27 C27           -2.2193    -0.0912     0.3676 C.ar    
  28 C28           -1.1275     0.7523     0.4172 C.ar    
  29 F29           -3.3009     0.1601     1.1372 F       
  30 F30           -3.2837    -2.0126    -0.5250 F       
  31 F31            1.0728    -0.8798    -1.9949 F       
  32 H32           -0.8355     3.0690    -1.0316 H       
  33 H33           -0.4459     3.7911     0.5481 H       
  34 H34            1.0858     4.7405    -1.8601 H       
  35 H35           -0.5961     5.2868    -1.6703 H       
  36 H36            0.9465     6.8794    -0.6025 H       
  37 H37           -0.0675     6.0837     0.6214 H       
  38 H38            2.5515     6.3055     0.9768 H       
  39 H39            1.6964     4.8217     1.4615 H       
  40 H40            3.8947     4.7077    -0.0562 H       
  41 H41            2.7247     5.0193    -1.3631 H       
  42 H42            4.8690     0.0920    -0.0120 H       
  43 H43            7.2197     1.7542    -0.5002 H       
  44 H44            6.8782    -0.9494     2.0626 H       
  45 H45            6.8480     0.1622     3.4524 H       
  46 H46            5.4746     0.1142     2.3211 H       
  47 H47            9.1646     0.3564    -0.9346 H       
  48 H48            9.2146     1.8079     1.1192 H       
  49 H49            9.0280     1.0763     2.7311 H       
  50 H50            9.0687     0.0415     1.2834 H       
  51 H51            5.6891     2.5765     1.9562 H       
  52 H52            7.0625     2.6246     3.0874 H       
  53 H53            7.2455     3.2672     1.4376 H       
  54 H54            9.0807    -2.4634    -0.7991 H       
  55 H55            8.4274    -1.9579    -2.3758 H       
  56 H56           10.0939    -1.5266    -1.9233 H       
  57 H57           -1.1032    -2.3163    -1.9217 H       
  58 H58           -1.1357     1.6098     1.0738 H       
@<TRIPOS>BOND
   1    1    2 ar
   2    1    3 1
   3    1   28 ar
   4    2   25 ar
   5    2   31 1
   6    3    4 1
   7    3    7 2
   8    4    5 1
   9    4    8 1
  10    5    6 2
  11    5   12 1
  12    6    7 1
  13    6   13 1
  14    8    9 1
  15    8   32 1
  16    8   33 1
  17    9   10 1
  18    9   34 1
  19    9   35 1
  20   10   11 1
  21   10   36 1
  22   10   37 1
  23   11   12 1
  24   11   38 1
  25   11   39 1
  26   12   40 1
  27   12   41 1
  28   13   14 2
  29   13   15 am
  30   15   16 1
  31   15   42 1
  32   16   21 1
  33   16   17 1
  34   16   43 1
  35   17   19 am
  36   17   20 2
  37   18   21 1
  38   18   44 1
  39   18   45 1
  40   18   46 1
  41   19   24 1
  42   19   47 1
  43   21   22 1
  44   21   23 1
  45   22   48 1
  46   22   49 1
  47   22   50 1
  48   23   51 1
  49   23   52 1
  50   23   53 1
  51   24   54 1
  52   24   55 1
  53   24   56 1
  54   25   26 ar
  55   25   57 1
  56   26   27 ar
  57   26   30 1
  58   27   28 ar
  59   27   29 1
  60   28   58 1

#	End of record

