#	Name: ASD01870477
#	Creating user name:	WinNT
#	Creation time:	15. 06. 2019 19:39

#	Modifying user name:	WinNT
#	Modification time:	15. 06. 2019 19:39

#	Program:	/corina/corina34_cracker 3.40 0067  02.08.2006

@<TRIPOS>MOLECULE
ASD01870477
  39   42    0    0    0
SMALL
NO_CHARGES


@<TRIPOS>ATOM
   1 C1            -0.0304     1.3966    -0.2317 C.ar    
   2 C2            -0.0274     0.0162    -0.1044 C.ar    
   3 C3             1.1516    -0.6624     0.1405 C.ar    
   4 C4             2.3475     0.0279     0.2625 C.ar    
   5 C5             2.3599     1.4078     0.1376 C.ar    
   6 C6             1.1575     2.0999    -0.1125 C.ar    
   7 C7             3.4144     2.4413     0.2066 C.2     
   8 N8             2.8482     3.6454     0.0084 N.am    
   9 C9             1.5223     3.5303    -0.1876 C.2     
  10 O10            0.7536     4.4482    -0.3911 O.2     
  11 O11            4.5945     2.2375     0.4091 O.2     
  12 C12            3.5487     4.8615     0.0057 C.ar    
  13 C13            4.0789     5.3545    -1.1788 C.ar    
  14 C14            4.7684     6.5504    -1.1818 C.ar    
  15 C15            4.9317     7.2613     0.0004 C.ar    
  16 C16            4.4013     6.7690     1.1855 C.ar    
  17 C17            3.7067     5.5747     1.1874 C.ar    
  18 Cl18           3.0376     4.9618     2.6674 Cl      
  19 N19            5.6314     8.4739    -0.0030 N.am    
  20 C20            6.4033     8.8094     1.0497 C.2     
  21 C21            7.2191    10.0343     1.0036 C.2     
  22 O22            6.4260     8.1002     2.0378 O.2     
  23 C23            8.0154    10.4309     2.0221 C.2     
  24 S24            8.7896    11.8897     1.5810 S.3     
  25 C25            8.0063    11.8861     0.0636 C.2     
  26 N26            7.2462    10.8544    -0.0502 N.2     
  27 C27            8.1908     9.7061     3.3316 C.3     
  28 H28           -0.9539     1.9212    -0.4274 H       
  29 H29           -0.9529    -0.5328    -0.1967 H       
  30 H30            1.1410    -1.7380     0.2377 H       
  31 H31            3.2656    -0.5075     0.4545 H       
  32 H32            3.9522     4.8021    -2.0981 H       
  33 H33            5.1813     6.9333    -2.1034 H       
  34 H34            4.5284     7.3215     2.1047 H       
  35 H35            5.5606     9.0726    -0.7629 H       
  36 H36            8.1343    12.6426    -0.6965 H       
  37 H37            9.0129     8.9955     3.2463 H       
  38 H38            8.4134    10.4265     4.1187 H       
  39 H39            7.2729     9.1719     3.5770 H       
@<TRIPOS>BOND
   1    1    2 ar
   2    1    6 ar
   3    1   28 1
   4    2    3 ar
   5    2   29 1
   6    3    4 ar
   7    3   30 1
   8    4    5 ar
   9    4   31 1
  10    5    7 1
  11    5    6 ar
  12    6    9 1
  13    7    8 am
  14    7   11 2
  15    8    9 am
  16    8   12 1
  17    9   10 2
  18   12   13 ar
  19   12   17 ar
  20   13   14 ar
  21   13   32 1
  22   14   15 ar
  23   14   33 1
  24   15   16 ar
  25   15   19 1
  26   16   17 ar
  27   16   34 1
  28   17   18 1
  29   19   20 am
  30   19   35 1
  31   20   21 1
  32   20   22 2
  33   21   23 2
  34   21   26 1
  35   23   24 1
  36   23   27 1
  37   24   25 1
  38   25   26 2
  39   25   36 1
  40   27   37 1
  41   27   38 1
  42   27   39 1

#	End of record

