#	Name: ASD08070671
#	Creating user name:	WinNT
#	Creation time:	15. 06. 2019 21:15

#	Modifying user name:	WinNT
#	Modification time:	15. 06. 2019 21:15

#	Program:	/corina/corina34_cracker 3.40 0067  02.08.2006

@<TRIPOS>MOLECULE
ASD08070671
  44   45    0    0    0
SMALL
NO_CHARGES


@<TRIPOS>ATOM
   1 C1            -0.0178     1.4584     0.0101 C.2     
   2 C2             0.0021    -0.0041     0.0020 C.2     
   3 C3             1.1800    -0.6630    -0.0128 C.2     
   4 O4             1.0280     2.0812     0.0034 O.2     
   5 N5            -1.1940     2.1163     0.0192 N.am    
   6 C6             1.1999    -2.1328    -0.0209 C.ar    
   7 C7             2.4201    -2.8185    -0.0362 C.ar    
   8 C8             2.4333    -4.1950    -0.0432 C.ar    
   9 C9             1.2375    -4.9041    -0.0351 C.ar    
  10 C10            0.0230    -4.2279    -0.0199 C.ar    
  11 C11           -0.0011    -2.8515    -0.0074 C.ar    
  12 O12            1.2559    -6.2613    -0.0426 O.3     
  13 C13           -0.0083    -6.9273    -0.0336 C.3     
  14 C14           -1.2139     3.5811     0.0273 C.3     
  15 C15           -1.1019     4.1006    -1.4075 C.3     
  16 O16           -2.2609     3.7109    -2.1470 O.3     
  17 C17           -2.5251     4.0700     0.6458 C.3     
  18 C18           -2.5792     3.6626     2.0957 C.ar    
  19 C19           -2.0749     4.5042     3.0694 C.ar    
  20 C20           -2.1245     4.1305     4.3993 C.ar    
  21 C21           -2.6788     2.9153     4.7556 C.ar    
  22 C22           -3.1840     2.0740     3.7819 C.ar    
  23 C23           -3.1383     2.4497     2.4524 C.ar    
  24 H24           -0.9258    -0.5567     0.0079 H       
  25 H25            2.1079    -0.1103    -0.0187 H       
  26 H26           -2.0274     1.6199     0.0205 H       
  27 H27            3.3496    -2.2686    -0.0428 H       
  28 H28            3.3742    -4.7251    -0.0554 H       
  29 H29           -0.9032    -4.7833    -0.0137 H       
  30 H30           -0.9451    -2.3271     0.0086 H       
  31 H31           -0.5604    -6.6468     0.8635 H       
  32 H32           -0.5781    -6.6373    -0.9164 H       
  33 H33            0.1491    -8.0059    -0.0409 H       
  34 H34           -0.3743     3.9527     0.6148 H       
  35 H35           -1.0273     5.1880    -1.3954 H       
  36 H36           -0.2127     3.6806    -1.8776 H       
  37 H37           -2.2580     4.0069    -3.0676 H       
  38 H38           -2.5792     5.1561     0.5713 H       
  39 H39           -3.3659     3.6269     0.1122 H       
  40 H40           -1.6419     5.4537     2.7911 H       
  41 H41           -1.7299     4.7878     5.1601 H       
  42 H42           -2.7170     2.6230     5.7946 H       
  43 H43           -3.6167     1.1245     4.0602 H       
  44 H44           -3.5362     1.7941     1.6920 H       
@<TRIPOS>BOND
   1    1    2 1
   2    1    4 2
   3    1    5 am
   4    2    3 2
   5    2   24 1
   6    3    6 1
   7    3   25 1
   8    5   14 1
   9    5   26 1
  10    6    7 ar
  11    6   11 ar
  12    7    8 ar
  13    7   27 1
  14    8    9 ar
  15    8   28 1
  16    9   10 ar
  17    9   12 1
  18   10   11 ar
  19   10   29 1
  20   11   30 1
  21   12   13 1
  22   13   31 1
  23   13   32 1
  24   13   33 1
  25   14   15 1
  26   14   17 1
  27   14   34 1
  28   15   16 1
  29   15   35 1
  30   15   36 1
  31   16   37 1
  32   17   18 1
  33   17   38 1
  34   17   39 1
  35   18   19 ar
  36   18   23 ar
  37   19   20 ar
  38   19   40 1
  39   20   21 ar
  40   20   41 1
  41   21   22 ar
  42   21   42 1
  43   22   23 ar
  44   22   43 1
  45   23   44 1

#	End of record

