#	Name: ASD06020178
#	Creating user name:	WinNT
#	Creation time:	15. 06. 2019 21:04

#	Modifying user name:	WinNT
#	Modification time:	15. 06. 2019 21:04

#	Program:	/corina/corina34_cracker 3.40 0067  02.08.2006

@<TRIPOS>MOLECULE
ASD06020178
  24   26    0    0    0
SMALL
NO_CHARGES


@<TRIPOS>ATOM
   1 C1             0.0021    -0.0041     0.0020 C.1     
   2 C2            -0.0173     1.4278     0.0099 C.ar    
   3 C3             1.1901     2.1532     0.0023 C.ar    
   4 C4             1.1549     3.5473     0.0096 C.ar    
   5 C5            -0.0594     4.2072     0.0243 C.ar    
   6 C6            -1.2454     3.4935     0.0322 C.ar    
   7 C7            -1.2316     2.1130     0.0193 C.ar    
   8 N8             0.0175    -1.1399    -0.0042 N.1     
   9 Cl9            2.6357     4.4534     0.0009 Cl      
  10 C10            5.4554    -1.0632    -0.0512 C.ar    
  11 C11            4.4224    -0.1296    -0.0382 C.ar    
  12 C12            4.7265     1.2392    -0.0340 C.ar    
  13 C13            6.0992     1.5936    -0.0440 C.ar    
  14 C14            7.0430     0.6110    -0.0570 C.ar    
  15 N15            6.7120    -0.6700    -0.0597 N.ar    
  16 S16            2.6712    -0.3067    -0.0235 S.3     
  17 C17            2.4845     1.4423    -0.0129 C.2     
  18 N18            3.6431     2.0161    -0.0204 N.2     
  19 F19            6.4679     2.8933    -0.0412 F       
  20 Br20           5.0506    -2.9104    -0.0490 Br      
  21 H21           -0.0830     5.2869     0.0299 H       
  22 H22           -2.1882     4.0202     0.0440 H       
  23 H23           -2.1615     1.5638     0.0207 H       
  24 H24            8.0877     0.8847    -0.0650 H       
@<TRIPOS>BOND
   1    1    2 1
   2    1    8 3
   3    2    3 ar
   4    2    7 ar
   5    3    4 ar
   6    3   17 1
   7    4    5 ar
   8    4    9 1
   9    5    6 ar
  10    5   21 1
  11    6    7 ar
  12    6   22 1
  13    7   23 1
  14   10   11 ar
  15   10   15 ar
  16   10   20 1
  17   11   12 ar
  18   11   16 1
  19   12   13 ar
  20   12   18 1
  21   13   14 ar
  22   13   19 1
  23   14   15 ar
  24   14   24 1
  25   16   17 1
  26   17   18 2

#	End of record

