#	Name: ASD03092488
#	Creating user name:	WinNT
#	Creation time:	15. 06. 2019 20:32

#	Modifying user name:	WinNT
#	Modification time:	15. 06. 2019 20:32

#	Program:	/corina/corina34_cracker 3.40 0067  02.08.2006

@<TRIPOS>MOLECULE
ASD03092488
  55   57    0    0    0
SMALL
NO_CHARGES


@<TRIPOS>ATOM
   1 C1             0.3377     2.0151     0.1445 C.2     
   2 C2             0.5539     0.5259     0.2242 C.3     
   3 C3             2.0546     0.2275     0.2208 C.3     
   4 O4             1.2900     2.7641     0.0903 O.2     
   5 N5            -0.9141     2.5144     0.1279 N.am    
   6 C6            -0.0700    -0.0118     1.5136 C.3     
   7 C7            -1.1243     3.9621     0.0503 C.3     
   8 S8            -4.9831     4.7577    -0.6387 S.3     
   9 C9            -4.5797     4.6090     1.0158 C.2     
  10 N10           -3.3133     4.3514     1.1495 N.2     
  11 C11           -2.6025     4.2556     0.0469 C.2     
  12 C12           -3.3088     4.4431    -1.0876 C.2     
  13 N13           -5.4735     4.7440     2.0625 N.3     
  14 C14           -6.8265     5.0336     1.5658 C.3     
  15 C15           -7.7925     5.1158     2.7507 C.3     
  16 O16           -7.3289     6.1089     3.6693 O.3     
  17 C17           -6.0143     5.8579     4.1735 C.3     
  18 C18           -5.0303     5.7833     3.0031 C.3     
  19 C19           -9.1866     5.4960     2.2479 C.3     
  20 F20           -9.6374     4.5266     1.3455 F       
  21 F21          -10.0687     5.5709     3.3312 F       
  22 F22           -9.1285     6.7383     1.6072 F       
  23 C23           -2.5480     5.3151    -4.6604 C.ar    
  24 C24           -3.0699     5.4020    -3.3880 C.ar    
  25 C25           -2.7732     4.3929    -2.4620 C.ar    
  26 C26           -1.9534     3.3351    -2.8774 C.ar    
  27 C27           -1.4751     3.3289    -4.1698 C.ar    
  28 N28           -1.7794     4.3004    -5.0103 N.ar    
  29 C29           -0.5920     2.1977    -4.6298 C.3     
  30 C30           -2.8640     6.3901    -5.6682 C.3     
  31 H31            0.0858     0.0443    -0.6343 H       
  32 H32            2.5227     0.7091     1.0793 H       
  33 H33            2.2110    -0.8497     0.2785 H       
  34 H34            2.4991     0.6105    -0.6978 H       
  35 H35           -1.6758     1.9151     0.1672 H       
  36 H36            0.0864    -1.0890     1.5713 H       
  37 H37            0.3982     0.4698     2.3721 H       
  38 H38           -1.1390     0.2008     1.5161 H       
  39 H39           -0.6604     4.4433     0.9114 H       
  40 H40           -0.6756     4.3459    -0.8659 H       
  41 H41           -6.8228     5.9844     1.0327 H       
  42 H42           -7.1446     4.2387     0.8913 H       
  43 H43           -7.8369     4.1488     3.2518 H       
  44 H44           -5.7214     6.6655     4.8444 H       
  45 H45           -6.0069     4.9125     4.7160 H       
  46 H46           -4.0371     5.5355     3.3777 H       
  47 H47           -4.9978     6.7460     2.4929 H       
  48 H48           -3.6976     6.2353    -3.1086 H       
  49 H49           -1.7001     2.5372    -2.1952 H       
  50 H50           -1.2090     1.4010    -5.0454 H       
  51 H51            0.0954     2.5609    -5.3938 H       
  52 H52           -0.0236     1.8129    -3.7830 H       
  53 H53           -2.1123     7.1771    -5.6076 H       
  54 H54           -2.8608     5.9610    -6.6701 H       
  55 H55           -3.8473     6.8096    -5.4556 H       
@<TRIPOS>BOND
   1    1    2 1
   2    1    4 2
   3    1    5 am
   4    2    3 1
   5    2    6 1
   6    2   31 1
   7    3   32 1
   8    3   33 1
   9    3   34 1
  10    5    7 1
  11    5   35 1
  12    6   36 1
  13    6   37 1
  14    6   38 1
  15    7   11 1
  16    7   39 1
  17    7   40 1
  18    8    9 1
  19    8   12 1
  20    9   10 2
  21    9   13 1
  22   10   11 1
  23   11   12 2
  24   12   25 1
  25   13   14 1
  26   13   18 1
  27   14   15 1
  28   14   41 1
  29   14   42 1
  30   15   16 1
  31   15   19 1
  32   15   43 1
  33   16   17 1
  34   17   18 1
  35   17   44 1
  36   17   45 1
  37   18   46 1
  38   18   47 1
  39   19   20 1
  40   19   21 1
  41   19   22 1
  42   23   24 ar
  43   23   28 ar
  44   23   30 1
  45   24   25 ar
  46   24   48 1
  47   25   26 ar
  48   26   27 ar
  49   26   49 1
  50   27   28 ar
  51   27   29 1
  52   29   50 1
  53   29   51 1
  54   29   52 1
  55   30   53 1
  56   30   54 1
  57   30   55 1

#	End of record

