#	Name: ASD01140632
#	Creating user name:	WinNT
#	Creation time:	15. 06. 2019 19:01

#	Modifying user name:	WinNT
#	Modification time:	15. 06. 2019 19:01

#	Program:	/corina/corina34_cracker 3.40 0067  02.08.2006

@<TRIPOS>MOLECULE
ASD01140632
  42   45    0    0    0
SMALL
NO_CHARGES


@<TRIPOS>ATOM
   1 C1            -0.0044     1.3466    -0.1878 C.2     
   2 C2             0.0145    -0.0120    -0.1304 C.2     
   3 C3             1.2393    -0.6859     0.0216 C.2     
   4 C4             2.3934     0.0112     0.1104 C.2     
   5 C5             1.2081     2.0600    -0.0937 C.2     
   6 N6             1.4794     3.3569    -0.1194 N.2     
   7 N7             2.3872     1.3766     0.0541 N.pl3   
   8 C8             3.3880     2.3049     0.1175 C.2     
   9 C9             2.8042     3.5310     0.0078 C.2     
  10 C10            3.5117     4.8354     0.0260 C.ar    
  11 C11            4.7086     4.9914    -0.6701 C.ar    
  12 C12            5.3622     6.2069    -0.6501 C.ar    
  13 C13            4.8310     7.2691     0.0591 C.ar    
  14 C14            3.6433     7.1196     0.7522 C.ar    
  15 C15            2.9785     5.9103     0.7344 C.ar    
  16 C16            4.8600     2.0251     0.2788 C.3     
  17 N17            5.4504     1.7451    -1.0324 N.am    
  18 C18            6.7649     1.4654    -1.1337 C.2     
  19 C19            7.3723     1.1774    -2.4825 C.3     
  20 O20            7.4591     1.4455    -0.1393 O.2     
  21 F21            1.2622    -2.0355     0.0795 F       
  22 C22            5.5492     8.5938     0.0771 C.3     
  23 C23            8.8697     0.8669    -2.5312 C.3     
  24 C24            7.8489    -0.2512    -2.7521 C.3     
  25 H25           -0.9391     1.8740    -0.3088 H       
  26 H26           -0.9070    -0.5708    -0.2009 H       
  27 H27            3.3290    -0.5154     0.2274 H       
  28 H28            5.1244     4.1626    -1.2238 H       
  29 H29            6.2902     6.3288    -1.1890 H       
  30 H30            3.2332     7.9521     1.3046 H       
  31 H31            2.0489     5.7960     1.2722 H       
  32 H32            5.3488     2.8941     0.7193 H       
  33 H33            4.9966     1.1622     0.9305 H       
  34 H34            4.8953     1.7611    -1.8277 H       
  35 H35            6.9459     1.7322    -3.3182 H       
  36 H36            5.1991     9.2082    -0.7523 H       
  37 H37            5.3462     9.1044     1.0185 H       
  38 H38            6.6218     8.4270    -0.0218 H       
  39 H39            9.4283     1.2171    -3.3992 H       
  40 H40            9.4155     0.8709    -1.5877 H       
  41 H41            7.7232    -0.9828    -1.9539 H       
  42 H42            7.7360    -0.6367    -3.7654 H       
@<TRIPOS>BOND
   1    1    2 2
   2    1    5 1
   3    1   25 1
   4    2    3 1
   5    2   26 1
   6    3    4 2
   7    3   21 1
   8    4    7 1
   9    4   27 1
  10    5    7 1
  11    5    6 2
  12    6    9 1
  13    7    8 1
  14    8    9 2
  15    8   16 1
  16    9   10 1
  17   10   11 ar
  18   10   15 ar
  19   11   12 ar
  20   11   28 1
  21   12   13 ar
  22   12   29 1
  23   13   14 ar
  24   13   22 1
  25   14   15 ar
  26   14   30 1
  27   15   31 1
  28   16   17 1
  29   16   32 1
  30   16   33 1
  31   17   18 am
  32   17   34 1
  33   18   19 1
  34   18   20 2
  35   19   23 1
  36   19   24 1
  37   19   35 1
  38   22   36 1
  39   22   37 1
  40   22   38 1
  41   23   24 1
  42   23   39 1
  43   23   40 1
  44   24   41 1
  45   24   42 1

#	End of record

