#	Name: ASD01140013
#	Creating user name:	WinNT
#	Creation time:	15. 06. 2019 18:59

#	Modifying user name:	WinNT
#	Modification time:	15. 06. 2019 18:59

#	Program:	/corina/corina34_cracker 3.40 0067  02.08.2006

@<TRIPOS>MOLECULE
ASD01140013
  38   41    0    0    0
SMALL
NO_CHARGES


@<TRIPOS>ATOM
   1 C1            -0.2227     1.7444     0.0179 C.ar    
   2 C2            -0.1039     0.3784    -0.2261 C.ar    
   3 C3            -1.2411    -0.4063    -0.2962 C.ar    
   4 C4            -2.4967     0.1586    -0.1258 C.ar    
   5 C5            -2.6134     1.5107     0.1191 C.ar    
   6 C6            -1.4768     2.3017     0.1936 C.ar    
   7 C7            -3.7032    -0.7385    -0.2214 C.3     
   8 N8            -4.8734    -0.0912     0.3797 N.3     
   9 C9            -5.0662     1.2490    -0.1965 C.3     
  10 C10           -3.9566     2.1643     0.3217 C.3     
  11 H11           -3.9098    -0.9530    -1.2699 H       
  12 C12           -3.4175    -2.0491     0.5145 C.3     
  13 C13           -2.9988    -1.7658     1.9383 C.2     
  14 C14           -1.7684    -2.2506     2.0843 C.2     
  15 C15           -1.3266    -2.8530     0.8237 C.2     
  16 O16           -2.2945    -2.7371    -0.1047 O.3     
  17 O17           -0.2460    -3.3790     0.6428 O.2     
  18 H18           -4.3019    -2.6861     0.5031 H       
  19 C19           -0.9542    -2.1891     3.3510 C.3     
  20 C20           -6.0770    -0.9159     0.2088 C.3     
  21 O21            1.0267     2.2938     0.0399 O.3     
  22 C22            1.9306     1.1866     0.2140 C.3     
  23 O23            1.2199     0.0720    -0.3566 O.3     
  24 H24           -1.1509    -1.4658    -0.4854 H       
  25 H25           -1.5716     3.3608     0.3826 H       
  26 H26           -5.0152     1.1910    -1.2837 H       
  27 H27           -6.0366     1.6420     0.1070 H       
  28 H28           -4.1103     2.3536     1.3840 H       
  29 H29           -3.9845     3.1095    -0.2205 H       
  30 H30           -3.5861    -1.2646     2.6935 H       
  31 H31           -1.1489    -3.0777     3.9515 H       
  32 H32            0.1056    -2.1453     3.0999 H       
  33 H33           -1.2304    -1.3000     3.9177 H       
  34 H34           -5.9695    -1.8383     0.7795 H       
  35 H35           -6.9477    -0.3666     0.5667 H       
  36 H36           -6.2068    -1.1548    -0.8468 H       
  37 H37            2.8614     1.3637    -0.3247 H       
  38 H38            2.1262     1.0148     1.2725 H       
@<TRIPOS>BOND
   1    1    2 ar
   2    1   21 1
   3    1    6 ar
   4    2    3 ar
   5    2   23 1
   6    3    4 ar
   7    3   24 1
   8    4    5 ar
   9    4    7 1
  10    5    6 ar
  11    5   10 1
  12    6   25 1
  13    7    8 1
  14    7   11 1
  15    7   12 1
  16    8    9 1
  17    8   20 1
  18    9   10 1
  19    9   26 1
  20    9   27 1
  21   10   28 1
  22   10   29 1
  23   12   13 1
  24   12   18 1
  25   12   16 1
  26   13   14 2
  27   13   30 1
  28   14   15 1
  29   14   19 1
  30   15   16 1
  31   15   17 2
  32   19   31 1
  33   19   32 1
  34   19   33 1
  35   20   34 1
  36   20   35 1
  37   20   36 1
  38   21   22 1
  39   22   23 1
  40   22   37 1
  41   22   38 1

#	End of record

