#	Name: ASD01916156
#	Creating user name:	WinNT
#	Creation time:	15. 06. 2019 20:06

#	Modifying user name:	WinNT
#	Modification time:	15. 06. 2019 20:06

#	Program:	/corina/corina34_cracker 3.40 0067  02.08.2006

@<TRIPOS>MOLECULE
ASD01916156
  45   48    0    0    0
SMALL
NO_CHARGES


@<TRIPOS>ATOM
   1 C1             0.0651     1.3861    -0.0288 C.ar    
   2 C2             0.0719     0.0048    -0.0324 C.ar    
   3 C3             1.2771    -0.6830    -0.0321 C.ar    
   4 C4             2.4735     0.0181    -0.0284 C.ar    
   5 C5             2.4626     1.4019    -0.0249 C.ar    
   6 C6             1.2580     2.0849    -0.0251 C.ar    
   7 O7             1.2849    -2.0420    -0.0351 O.3     
   8 C8             2.5619    -2.6834    -0.0347 C.3     
   9 C9             2.3730    -4.1785    -0.0383 C.2     
  10 C10            1.1441    -4.8506    -0.0416 C.2     
  11 N11            3.3301    -5.0732    -0.0446 N.2     
  12 N12            2.7418    -6.3408    -0.0505 N.pl3   
  13 C13            1.3992    -6.1726    -0.0434 C.2     
  14 C14            3.4248    -7.6373    -0.0712 C.3     
  15 C15            2.4517    -8.7283     0.3888 C.3     
  16 N16            1.1622    -8.5471    -0.2951 N.am    
  17 C17            0.4051    -7.3096    -0.0330 C.3     
  18 C18            0.6870    -9.4832    -1.1403 C.2     
  19 C19           -0.6677    -9.3411    -1.7146 C.ar    
  20 O20            1.3724   -10.4442    -1.4304 O.2     
  21 C21           -0.9456    -9.7703    -3.0174 C.ar    
  22 C22           -3.1226    -9.0846    -2.7549 C.ar    
  23 N23           -2.9056    -8.6716    -1.5215 N.ar    
  24 C24           -1.7101    -8.7790    -0.9689 C.ar    
  25 N25           -2.1708    -9.6246    -3.4907 N.ar    
  26 F26            3.6272     2.0866    -0.0212 F       
  27 C27           -4.5039    -8.9407    -3.3400 C.3     
  28 H28           -0.8732     1.9208    -0.0336 H       
  29 H29           -0.8607    -0.5398    -0.0349 H       
  30 H30            3.4127    -0.5152    -0.0278 H       
  31 H31            1.2503     3.1649    -0.0223 H       
  32 H32            3.1185    -2.3853    -0.9232 H       
  33 H33            3.1159    -2.3893     0.8567 H       
  34 H34            0.1669    -4.3907    -0.0424 H       
  35 H35            3.7627    -7.8546    -1.0844 H       
  36 H36            4.2825    -7.6077     0.6008 H       
  37 H37            2.8602    -9.7082     0.1419 H       
  38 H38            2.3056    -8.6550     1.4665 H       
  39 H39           -0.0779    -7.3688     0.9424 H       
  40 H40           -0.3433    -7.1596    -0.8111 H       
  41 H41           -0.1712   -10.2132    -3.6262 H       
  42 H42           -1.5402    -8.4389     0.0420 H       
  43 H43           -4.5893    -7.9742    -3.8366 H       
  44 H44           -4.6769    -9.7375    -4.0634 H       
  45 H45           -5.2447    -9.0065    -2.5431 H       
@<TRIPOS>BOND
   1    1    2 ar
   2    1    6 ar
   3    1   28 1
   4    2    3 ar
   5    2   29 1
   6    3    4 ar
   7    3    7 1
   8    4    5 ar
   9    4   30 1
  10    5    6 ar
  11    5   26 1
  12    6   31 1
  13    7    8 1
  14    8    9 1
  15    8   32 1
  16    8   33 1
  17    9   10 1
  18    9   11 2
  19   10   13 2
  20   10   34 1
  21   11   12 1
  22   12   13 1
  23   12   14 1
  24   13   17 1
  25   14   15 1
  26   14   35 1
  27   14   36 1
  28   15   16 1
  29   15   37 1
  30   15   38 1
  31   16   17 1
  32   16   18 am
  33   17   39 1
  34   17   40 1
  35   18   19 1
  36   18   20 2
  37   19   21 ar
  38   19   24 ar
  39   21   25 ar
  40   21   41 1
  41   22   23 ar
  42   22   27 1
  43   22   25 ar
  44   23   24 ar
  45   24   42 1
  46   27   43 1
  47   27   44 1
  48   27   45 1

#	End of record

