#	Name: ASD01917836
#	Creating user name:	WinNT
#	Creation time:	15. 06. 2019 20:10

#	Modifying user name:	WinNT
#	Modification time:	15. 06. 2019 20:10

#	Program:	/corina/corina34_cracker 3.40 0067  02.08.2006

@<TRIPOS>MOLECULE
ASD01917836
  39   42    0    0    0
SMALL
NO_CHARGES


@<TRIPOS>ATOM
   1 C1             0.0042     1.2864    -0.0770 C.2     
   2 C2            -0.0044    -0.0597    -0.0682 C.2     
   3 C3            -1.2850    -0.8790    -0.0233 C.3     
   4 C4            -2.4284     0.0050     0.4803 C.3     
   5 N5            -2.3967     1.2884    -0.2373 N.am    
   6 C6            -1.2275     2.1613    -0.0322 C.3     
   7 C7            -3.4039     1.6536    -1.0549 C.2     
   8 O8            -4.3062     0.8744    -1.2936 O.2     
   9 S9             1.6721     1.8385    -0.1408 S.3     
  10 C10            2.2158     0.2180    -0.1456 C.2     
  11 N11            1.2123    -0.5859    -0.1041 N.2     
  12 C12            3.6608    -0.2072    -0.1921 C.3     
  13 O13            4.0709    -0.3528    -1.5533 O.3     
  14 C14            5.3566    -0.7345    -1.7728 C.ar    
  15 C15            5.8219    -0.8951    -3.0699 C.ar    
  16 C16            7.1292    -1.2832    -3.2904 C.ar    
  17 C17            7.9738    -1.5115    -2.2197 C.ar    
  18 C18            7.5124    -1.3525    -0.9260 C.ar    
  19 C19            6.2077    -0.9586    -0.7003 C.ar    
  20 C20           -3.4117     2.9988    -1.6602 C.2     
  21 C21           -4.2883     3.4739    -2.5972 C.2     
  22 C22           -3.8530     4.7981    -2.8266 C.2     
  23 N23           -2.8210     4.9885    -2.0572 N.2     
  24 O24           -2.5611     4.0091    -1.3980 O.3     
  25 H25           -1.5196    -1.2436    -1.0234 H       
  26 H26           -1.1533    -1.7243     0.6522 H       
  27 H27           -3.3811    -0.4917     0.2967 H       
  28 H28           -2.3086     0.1821     1.5491 H       
  29 H29           -1.2987     2.6539     0.9375 H       
  30 H30           -1.1790     2.9077    -0.8251 H       
  31 H31            4.2777     0.5483     0.2944 H       
  32 H32            3.7763    -1.1593     0.3259 H       
  33 H33            5.1625    -0.7173    -3.9065 H       
  34 H34            7.4918    -1.4087    -4.2999 H       
  35 H35            8.9955    -1.8148    -2.3942 H       
  36 H36            8.1738    -1.5321    -0.0914 H       
  37 H37            5.8477    -0.8346     0.3103 H       
  38 H38           -5.1188     2.9571    -3.0549 H       
  39 H39           -4.2911     5.5127    -3.5077 H       
@<TRIPOS>BOND
   1    1    2 2
   2    1    9 1
   3    1    6 1
   4    2    3 1
   5    2   11 1
   6    3    4 1
   7    3   25 1
   8    3   26 1
   9    4    5 1
  10    4   27 1
  11    4   28 1
  12    5    6 1
  13    5    7 am
  14    6   29 1
  15    6   30 1
  16    7    8 2
  17    7   20 1
  18    9   10 1
  19   10   11 2
  20   10   12 1
  21   12   13 1
  22   12   31 1
  23   12   32 1
  24   13   14 1
  25   14   15 ar
  26   14   19 ar
  27   15   16 ar
  28   15   33 1
  29   16   17 ar
  30   16   34 1
  31   17   18 ar
  32   17   35 1
  33   18   19 ar
  34   18   36 1
  35   19   37 1
  36   20   21 2
  37   20   24 1
  38   21   22 1
  39   21   38 1
  40   22   23 2
  41   22   39 1
  42   23   24 1

#	End of record

