#	Name: ASD04882222
#	Creating user name:	WinNT
#	Creation time:	15. 06. 2019 20:54

#	Modifying user name:	WinNT
#	Modification time:	15. 06. 2019 20:54

#	Program:	/corina/corina34_cracker 3.40 0067  02.08.2006

@<TRIPOS>MOLECULE
ASD04882222
  77   81    0    0    0
SMALL
NO_CHARGES


@<TRIPOS>ATOM
   1 N1            -0.1363     1.5551    -0.0363 N.am    
   2 C2            -0.0765     0.1555    -0.0458 C.ar    
   3 C3            -1.2529    -0.5954     0.0294 C.ar    
   4 C4            -1.1950    -1.9843     0.0200 C.ar    
   5 C5             0.0211    -2.6254    -0.0638 C.ar    
   6 C6             1.2013    -1.8805    -0.1398 C.ar    
   7 C7             1.1456    -0.4840    -0.1354 C.ar    
   8 N8            -2.4846     0.0486     0.1143 N.3     
   9 C9            -2.6117     0.7769     1.3844 C.3     
  10 C10           -3.5901    -0.9046    -0.0558 C.3     
  11 C11           -4.9203    -0.1478    -0.0356 C.3     
  12 N12           -5.0473     0.5804     1.2345 N.3     
  13 C13           -3.9418     1.5336     1.4046 C.3     
  14 C14           -6.3467     1.2598     1.3241 C.3     
  15 C15            2.5038    -2.5675    -0.2291 C.2     
  16 O16            3.5301    -1.9187    -0.2951 O.2     
  17 N17            2.5562    -3.9142    -0.2374 N.am    
  18 C18            3.8497    -4.5964    -0.3261 C.3     
  19 C19            3.6294    -6.1105    -0.3168 C.3     
  20 C20            4.9802    -6.8229    -0.4094 C.3     
  21 N21            4.7693    -8.2726    -0.4006 N.am    
  22 C22            4.5696    -9.0877    -1.6046 C.3     
  23 C23            3.9675   -10.4199    -1.1052 C.3     
  24 C24            4.4881   -10.4754     0.3497 C.3     
  25 C25            4.7397    -9.0280     0.7109 C.2     
  26 O26            4.8859    -8.6090     1.8396 O.2     
  27 C27            0.8454     2.2676     0.5511 C.2     
  28 C28            0.8485     3.7307     0.4536 C.2     
  29 O29            1.7294     1.6966     1.1626 O.2     
  30 C30            1.7781     4.5693     0.9988 C.2     
  31 O31           -0.0635     4.4838    -0.1954 O.3     
  32 C32            0.2599     5.7778    -0.0723 C.2     
  33 C33            1.3921     5.8753     0.6589 C.2     
  34 C34           -0.5097     6.9341    -0.6567 C.3     
  35 C35           -4.0932     2.2492     2.7222 C.ar    
  36 C36           -3.8163     3.6007     2.8106 C.ar    
  37 C37           -4.5145     1.5554     3.8411 C.ar    
  38 C38           -4.6533     2.2118     5.0498 C.ar    
  39 C39           -4.3705     3.5619     5.1395 C.ar    
  40 C40           -3.9551     4.2570     4.0192 C.ar    
  41 H41           -0.8823     2.0116    -0.4560 H       
  42 H42           -2.1056    -2.5620     0.0790 H       
  43 H43            0.0627    -3.7046    -0.0705 H       
  44 H44            2.0559     0.0942    -0.1944 H       
  45 H45           -2.5829     0.0698     2.2134 H       
  46 H46           -1.7888     1.4852     1.4814 H       
  47 H47           -3.4806    -1.4221    -1.0088 H       
  48 H48           -3.5724    -1.6307     0.7569 H       
  49 H49           -4.9490     0.5592    -0.8647 H       
  50 H50           -5.7431    -0.8561    -0.1326 H       
  51 H51           -3.9595     2.2598     0.5919 H       
  52 H52           -7.1472     0.5319     1.1920 H       
  53 H53           -6.4430     1.7324     2.3016 H       
  54 H54           -6.4141     2.0193     0.5451 H       
  55 H55            1.7375    -4.4318    -0.1847 H       
  56 H56            4.3501    -4.3077    -1.2503 H       
  57 H57            4.4685    -4.3141     0.5257 H       
  58 H58            3.1290    -6.3992     0.6074 H       
  59 H59            3.0106    -6.3928    -1.1686 H       
  60 H60            5.4807    -6.5342    -1.3337 H       
  61 H61            5.5991    -6.5406     0.4423 H       
  62 H62            3.8769    -8.5923    -2.2849 H       
  63 H63            5.5232    -9.2674    -2.1010 H       
  64 H64            2.8782   -10.3887    -1.1288 H       
  65 H65            4.3449   -11.2609    -1.6870 H       
  66 H66            3.7359   -10.9105     1.0077 H       
  67 H67            5.4164   -11.0443     0.4012 H       
  68 H68            2.6427     4.2831     1.5793 H       
  69 H69            1.9037     6.7868     0.9307 H       
  70 H70           -1.3767     6.5566    -1.1988 H       
  71 H71           -0.8416     7.5925     0.1461 H       
  72 H72            0.1325     7.4897    -1.3401 H       
  73 H73           -3.4911     4.1436     1.9354 H       
  74 H74           -4.7354     0.5006     3.7710 H       
  75 H75           -4.9831     1.6699     5.9238 H       
  76 H76           -4.4794     4.0748     6.0837 H       
  77 H77           -3.7342     5.3119     4.0893 H       
@<TRIPOS>BOND
   1    1    2 1
   2    1   27 am
   3    1   41 1
   4    2    3 ar
   5    2    7 ar
   6    3    4 ar
   7    3    8 1
   8    4    5 ar
   9    4   42 1
  10    5    6 ar
  11    5   43 1
  12    6    7 ar
  13    6   15 1
  14    7   44 1
  15    8    9 1
  16    8   10 1
  17    9   13 1
  18    9   45 1
  19    9   46 1
  20   10   11 1
  21   10   47 1
  22   10   48 1
  23   11   12 1
  24   11   49 1
  25   11   50 1
  26   12   13 1
  27   12   14 1
  28   13   35 1
  29   13   51 1
  30   14   52 1
  31   14   53 1
  32   14   54 1
  33   15   16 2
  34   15   17 am
  35   17   18 1
  36   17   55 1
  37   18   19 1
  38   18   56 1
  39   18   57 1
  40   19   20 1
  41   19   58 1
  42   19   59 1
  43   20   21 1
  44   20   60 1
  45   20   61 1
  46   21   22 1
  47   21   25 am
  48   22   23 1
  49   22   62 1
  50   22   63 1
  51   23   24 1
  52   23   64 1
  53   23   65 1
  54   24   25 1
  55   24   66 1
  56   24   67 1
  57   25   26 2
  58   27   28 1
  59   27   29 2
  60   28   30 2
  61   28   31 1
  62   30   33 1
  63   30   68 1
  64   31   32 1
  65   32   33 2
  66   32   34 1
  67   33   69 1
  68   34   70 1
  69   34   71 1
  70   34   72 1
  71   35   36 ar
  72   35   37 ar
  73   36   40 ar
  74   36   73 1
  75   37   38 ar
  76   37   74 1
  77   38   39 ar
  78   38   75 1
  79   39   40 ar
  80   39   76 1
  81   40   77 1

#	End of record

