#	Name: ASD02030304
#	Creating user name:	WinNT
#	Creation time:	15. 06. 2019 20:15

#	Modifying user name:	WinNT
#	Modification time:	15. 06. 2019 20:15

#	Program:	/corina/corina34_cracker 3.40 0067  02.08.2006

@<TRIPOS>MOLECULE
ASD02030304
  52   56    0    0    0
SMALL
NO_CHARGES


@<TRIPOS>ATOM
   1 N1            -1.5012     1.7377    -1.8217 N.am    
   2 C2            -1.2654     0.2979    -1.6449 C.3     
   3 C3            -1.5277    -0.0652    -0.1781 C.3     
   4 N4            -2.8277     0.4937     0.2188 N.am    
   5 C5            -3.0634     1.9335     0.0421 C.3     
   6 C6            -2.7992     2.2975    -1.4196 C.3     
   7 C7            -0.5422     2.5315    -2.3381 C.2     
   8 C8             0.8110     1.9904    -2.5861 C.2     
   9 N9             1.8699     2.6865    -2.9398 N.2     
  10 N10            1.1782     0.6998    -2.4841 N.2     
  11 C11            2.4508     0.6327    -2.7818 C.2     
  12 N12            2.8697     1.8833    -3.0646 N.pl3   
  13 C13            4.1719     2.2474    -3.4330 C.ar    
  14 O14           -0.7899     3.6924    -2.6000 O.2     
  15 C15           -3.7867    -0.3001     0.7353 C.2     
  16 C16           -3.6218    -1.7604     0.7147 C.2     
  17 O17           -4.7888     0.1921     1.2185 O.2     
  18 C18            4.4739     3.5764    -3.6988 C.ar    
  19 C19            5.7581     3.9321    -4.0616 C.ar    
  20 C20            6.7428     2.9662    -4.1603 C.ar    
  21 C21            6.4451     1.6418    -3.8967 C.ar    
  22 C22            5.1642     1.2807    -3.5274 C.ar    
  23 C23           -4.5449    -2.6238     0.2788 C.2     
  24 C24           -2.7734     3.8196    -1.5730 C.3     
  25 C25           -4.1858    -3.9794     0.3443 C.ar    
  26 C26           -2.9003    -4.1704     0.8656 C.ar    
  27 S27           -2.1834    -2.6101     1.2518 S.3     
  28 C28           -4.9380    -5.1174    -0.0380 C.ar    
  29 C29           -4.4176    -6.3668     0.1010 C.ar    
  30 C30           -3.1414    -6.5496     0.6189 C.ar    
  31 C31           -2.3876    -5.4652     0.9986 C.ar    
  32 Cl32          -6.5352    -4.9165    -0.6879 Cl      
  33 H33           -1.9420    -0.2652    -2.2878 H       
  34 H34           -0.2325     0.0622    -1.9011 H       
  35 H35           -1.5464    -1.1494    -0.0673 H       
  36 H36           -0.7417     0.3556     0.4491 H       
  37 H37           -4.0963     2.1692     0.2983 H       
  38 H38           -2.3868     2.4966     0.6849 H       
  39 H39           -3.5836     1.8772    -2.0488 H       
  40 H40            3.0564    -0.2614    -2.7961 H       
  41 H41            3.7051     4.3311    -3.6222 H       
  42 H42            5.9935     4.9655    -4.2688 H       
  43 H43            7.7464     3.2468    -4.4442 H       
  44 H44            7.2161     0.8896    -3.9753 H       
  45 H45            4.9323     0.2462    -3.3216 H       
  46 H46           -5.5036    -2.2997    -0.0984 H       
  47 H47           -1.8048     4.2010    -1.2496 H       
  48 H48           -2.9367     4.0822    -2.6183 H       
  49 H49           -3.5602     4.2599    -0.9606 H       
  50 H50           -5.0026    -7.2253    -0.1940 H       
  51 H51           -2.7408    -7.5470     0.7240 H       
  52 H52           -1.3962    -5.6130     1.4007 H       
@<TRIPOS>BOND
   1    1    2 1
   2    1    7 am
   3    1    6 1
   4    2    3 1
   5    2   33 1
   6    2   34 1
   7    3    4 1
   8    3   35 1
   9    3   36 1
  10    4    5 1
  11    4   15 am
  12    5    6 1
  13    5   37 1
  14    5   38 1
  15    6   24 1
  16    6   39 1
  17    7    8 1
  18    7   14 2
  19    8    9 2
  20    8   10 1
  21    9   12 1
  22   10   11 2
  23   11   12 1
  24   11   40 1
  25   12   13 1
  26   13   18 ar
  27   13   22 ar
  28   15   16 1
  29   15   17 2
  30   16   23 2
  31   16   27 1
  32   18   19 ar
  33   18   41 1
  34   19   20 ar
  35   19   42 1
  36   20   21 ar
  37   20   43 1
  38   21   22 ar
  39   21   44 1
  40   22   45 1
  41   23   25 1
  42   23   46 1
  43   24   47 1
  44   24   48 1
  45   24   49 1
  46   25   26 ar
  47   25   28 ar
  48   26   27 1
  49   26   31 ar
  50   28   29 ar
  51   28   32 1
  52   29   30 ar
  53   29   50 1
  54   30   31 ar
  55   30   51 1
  56   31   52 1

#	End of record

