#	Name: ASD01900530
#	Creating user name:	WinNT
#	Creation time:	15. 06. 2019 19:52

#	Modifying user name:	WinNT
#	Modification time:	15. 06. 2019 19:52

#	Program:	/corina/corina34_cracker 3.40 0067  02.08.2006

@<TRIPOS>MOLECULE
ASD01900530
  30   32    0    0    0
SMALL
NO_CHARGES


@<TRIPOS>ATOM
   1 O1             4.4658    -2.6635    -2.0307 O.3     
   2 N2             3.1554    -2.8575    -1.5381 N.2     
   3 C3             2.8532    -1.8988    -0.7068 C.2     
   4 C4             4.0193    -1.0054    -0.6298 C.ar    
   5 C5             4.9909    -1.5469    -1.4854 C.ar    
   6 C6             6.2174    -0.9082    -1.6196 C.ar    
   7 C7             6.4713     0.2486    -0.9146 C.ar    
   8 C8             5.5114     0.7846    -0.0687 C.ar    
   9 C9             4.2897     0.1660     0.0776 C.ar    
  10 N10            1.6546    -1.7492    -0.0227 N.pl3   
  11 C11            0.6709    -2.7414    -0.1091 C.ar    
  12 C12            1.0355    -4.0646    -0.3223 C.ar    
  13 C13            0.0639    -5.0431    -0.4069 C.ar    
  14 C14           -1.2763    -4.7036    -0.2788 C.ar    
  15 C15           -1.6402    -3.3828    -0.0660 C.ar    
  16 C16           -0.6694    -2.4041     0.0241 C.ar    
  17 O17           -2.2326    -5.6672    -0.3626 O.3     
  18 C18           -3.5911    -5.2468    -0.2216 C.3     
  19 Cl19           0.5186    -6.6971    -0.6740 Cl      
  20 H20            6.9713    -1.3180    -2.2755 H       
  21 H21            7.4261     0.7420    -1.0215 H       
  22 H22            5.7232     1.6917     0.4779 H       
  23 H23            3.5444     0.5860     0.7367 H       
  24 H24            1.4987    -0.9572     0.5151 H       
  25 H25            2.0780    -4.3283    -0.4223 H       
  26 H26           -2.6829    -3.1195     0.0332 H       
  27 H27           -0.9531    -1.3761     0.1944 H       
  28 H28           -4.2497    -6.1110    -0.3085 H       
  29 H29           -3.7282    -4.7822     0.7548 H       
  30 H30           -3.8316    -4.5267    -1.0037 H       
@<TRIPOS>BOND
   1    1    2 1
   2    1    5 1
   3    2    3 2
   4    3    4 1
   5    3   10 1
   6    4    5 ar
   7    4    9 ar
   8    5    6 ar
   9    6    7 ar
  10    6   20 1
  11    7    8 ar
  12    7   21 1
  13    8    9 ar
  14    8   22 1
  15    9   23 1
  16   10   11 1
  17   10   24 1
  18   11   12 ar
  19   11   16 ar
  20   12   13 ar
  21   12   25 1
  22   13   14 ar
  23   13   19 1
  24   14   15 ar
  25   14   17 1
  26   15   16 ar
  27   15   26 1
  28   16   27 1
  29   17   18 1
  30   18   28 1
  31   18   29 1
  32   18   30 1

#	End of record

