#	Name: ASD01915313
#	Creating user name:	WinNT
#	Creation time:	15. 06. 2019 20:05

#	Modifying user name:	WinNT
#	Modification time:	15. 06. 2019 20:05

#	Program:	/corina/corina34_cracker 3.40 0067  02.08.2006

@<TRIPOS>MOLECULE
ASD01915313
  41   44    0    0    0
SMALL
NO_CHARGES


@<TRIPOS>ATOM
   1 N1             0.1062     1.3083     0.2251 N.2     
   2 N2             0.1719    -0.0807     0.0265 N.pl3   
   3 N3             1.3759    -0.3503    -0.3490 N.2     
   4 N4             2.0622     0.7356    -0.4024 N.2     
   5 C5             1.3028     1.7699    -0.0536 C.2     
   6 C6             1.7375     3.2114     0.0102 C.3     
   7 C7            -0.8729    -0.9996     0.2034 C.ar    
   8 C8            -0.6581    -2.3503    -0.0324 C.ar    
   9 C9            -1.6900    -3.2536     0.1429 C.ar    
  10 C10           -2.9356    -2.8114     0.5524 C.ar    
  11 C11           -3.1515    -1.4659     0.7874 C.ar    
  12 C12           -2.1224    -0.5602     0.6203 C.ar    
  13 Cl13          -1.4231    -4.9435    -0.1517 Cl      
  14 N14            2.7229     3.3816     1.0866 N.am    
  15 C15            3.3926     4.6812     1.2325 C.3     
  16 C16            4.0217     5.0651    -0.1105 C.3     
  17 C17            2.9483     5.0300    -1.2008 C.3     
  18 C18            2.3852     3.6119    -1.3190 C.3     
  19 C19            3.0069     2.3649     1.9246 C.2     
  20 O20            2.3606     1.3349     1.8728 O.2     
  21 C21            4.0940     2.4996     2.8982 C.2     
  22 C22            4.3951     1.6130     3.8928 C.2     
  23 C23            5.5005     2.1366     4.5796 C.2     
  24 C24            5.8231     3.3068     3.9817 C.2     
  25 O25            4.9765     3.5186     2.9655 O.3     
  26 Br26           7.2401     4.4504     4.4916 Br      
  27 H27            0.8723     3.8457     0.2033 H       
  28 H28            0.3139    -2.6953    -0.3527 H       
  29 H29           -3.7407    -3.5183     0.6885 H       
  30 H30           -4.1248    -1.1236     1.1066 H       
  31 H31           -2.2920     0.4904     0.8044 H       
  32 H32            2.6635     5.4373     1.5239 H       
  33 H33            4.1702     4.6083     1.9927 H       
  34 H34            4.4388     6.0699    -0.0429 H       
  35 H35            4.8137     4.3578    -0.3567 H       
  36 H36            2.1448     5.7193    -0.9416 H       
  37 H37            3.3881     5.3267    -2.1530 H       
  38 H38            3.1926     2.9182    -1.5539 H       
  39 H39            1.6375     3.5823    -2.1116 H       
  40 H40            3.8812     0.6880     4.1088 H       
  41 H41            5.9998     1.6899     5.4266 H       
@<TRIPOS>BOND
   1    1    2 1
   2    1    5 2
   3    2    3 1
   4    2    7 1
   5    3    4 2
   6    4    5 1
   7    5    6 1
   8    6   14 1
   9    6   18 1
  10    6   27 1
  11    7    8 ar
  12    7   12 ar
  13    8    9 ar
  14    8   28 1
  15    9   10 ar
  16    9   13 1
  17   10   11 ar
  18   10   29 1
  19   11   12 ar
  20   11   30 1
  21   12   31 1
  22   14   15 1
  23   14   19 am
  24   15   16 1
  25   15   32 1
  26   15   33 1
  27   16   17 1
  28   16   34 1
  29   16   35 1
  30   17   18 1
  31   17   36 1
  32   17   37 1
  33   18   38 1
  34   18   39 1
  35   19   20 2
  36   19   21 1
  37   21   22 2
  38   21   25 1
  39   22   23 1
  40   22   40 1
  41   23   24 2
  42   23   41 1
  43   24   25 1
  44   24   26 1

#	End of record

