#	Name: ASD02039463
#	Creating user name:	WinNT
#	Creation time:	15. 06. 2019 20:18

#	Modifying user name:	WinNT
#	Modification time:	15. 06. 2019 20:18

#	Program:	/corina/corina34_cracker 3.40 0067  02.08.2006

@<TRIPOS>MOLECULE
ASD02039463
  55   57    0    0    0
SMALL
NO_CHARGES


@<TRIPOS>ATOM
   1 C1             0.1135     1.1860     0.1172 C.ar    
   2 C2             0.3006    -0.1840     0.1501 C.ar    
   3 C3             1.3061     2.1073     0.1041 C.3     
   4 N4             1.7838     2.2681    -1.2714 N.am    
   5 C5             1.3879     3.3289    -2.0025 C.2     
   6 C6             0.3875     4.2649    -1.4608 C.2     
   7 C7            -0.1788     5.3134    -2.1249 C.2     
   8 N8            -0.1433     4.2376    -0.2115 N.2     
   9 C9            -0.9923     5.2172    -0.0934 C.2     
  10 N10           -1.0388     5.9058    -1.2635 N.pl3   
  11 O11            1.8566     3.5135    -3.1095 O.2     
  12 C12           -1.8700     7.0794    -1.5428 C.3     
  13 C13            2.6917     1.2760    -1.8523 C.3     
  14 C14           -0.7886    -1.0363     0.1614 C.ar    
  15 C15           -2.2648     0.8597     0.0970 C.ar    
  16 C16           -1.1627     1.7116     0.0907 C.ar    
  17 C17           -3.6386     1.4189     0.0681 C.ar    
  18 C18           -4.0117     2.4197     0.9602 C.ar    
  19 N19           -5.2312     2.9198     0.9386 N.ar    
  20 C20           -6.1430     2.4960     0.0766 C.ar    
  21 C21           -5.8434     1.4976    -0.8464 C.ar    
  22 C22           -4.5756     0.9512    -0.8607 C.ar    
  23 C23           -2.0715    -0.5220     0.1403 C.ar    
  24 F24           -3.1352    -1.3548     0.1514 F       
  25 N25           -7.4150     3.0547     0.0939 N.pl3   
  26 C26           -8.4623     2.5189    -0.7792 C.3     
  27 C27           -7.7090     4.1794     0.9854 C.3     
  28 C28            2.0761     0.7094    -3.1332 C.3     
  29 C29            4.0305     1.9401    -2.1803 C.3     
  30 H30            1.3012    -0.5899     0.1666 H       
  31 H31            1.0187     3.0793     0.5050 H       
  32 H32            2.1006     1.6818     0.7172 H       
  33 H33            0.0211     5.6136    -3.1429 H       
  34 H34           -1.5691     5.4440     0.7911 H       
  35 H35           -1.3212     7.9839    -1.2806 H       
  36 H36           -2.1224     7.1019    -2.6029 H       
  37 H37           -2.7848     7.0255    -0.9526 H       
  38 H38            2.8522     0.4682    -1.1382 H       
  39 H39           -0.6366    -2.1053     0.1863 H       
  40 H40           -1.3064     2.7815     0.0576 H       
  41 H41           -3.2949     2.7902     1.6780 H       
  42 H42           -6.5929     1.1574    -1.5457 H       
  43 H43           -4.3156     0.1755    -1.5658 H       
  44 H44           -9.0010     1.7280    -0.2575 H       
  45 H45           -9.1561     3.3162    -1.0459 H       
  46 H46           -8.0090     2.1140    -1.6841 H       
  47 H47           -7.5029     5.1165     0.4681 H       
  48 H48           -8.7591     4.1480     1.2758 H       
  49 H49           -7.0837     4.1106     1.8755 H       
  50 H50            1.8425     1.5262    -3.8162 H       
  51 H51            2.7847     0.0305    -3.6076 H       
  52 H52            1.1623     0.1679    -2.8885 H       
  53 H53            4.5092     2.2679    -1.2576 H       
  54 H54            4.6757     1.2246    -2.6901 H       
  55 H55            3.8602     2.8009    -2.8270 H       
@<TRIPOS>BOND
   1    1    2 ar
   2    1    3 1
   3    1   16 ar
   4    2   14 ar
   5    2   30 1
   6    3    4 1
   7    3   31 1
   8    3   32 1
   9    4    5 am
  10    4   13 1
  11    5    6 1
  12    5   11 2
  13    6    7 2
  14    6    8 1
  15    7   10 1
  16    7   33 1
  17    8    9 2
  18    9   10 1
  19    9   34 1
  20   10   12 1
  21   12   35 1
  22   12   36 1
  23   12   37 1
  24   13   28 1
  25   13   29 1
  26   13   38 1
  27   14   23 ar
  28   14   39 1
  29   15   16 ar
  30   15   17 1
  31   15   23 ar
  32   16   40 1
  33   17   18 ar
  34   17   22 ar
  35   18   19 ar
  36   18   41 1
  37   19   20 ar
  38   20   21 ar
  39   20   25 1
  40   21   22 ar
  41   21   42 1
  42   22   43 1
  43   23   24 1
  44   25   26 1
  45   25   27 1
  46   26   44 1
  47   26   45 1
  48   26   46 1
  49   27   47 1
  50   27   48 1
  51   27   49 1
  52   28   50 1
  53   28   51 1
  54   28   52 1
  55   29   53 1
  56   29   54 1
  57   29   55 1

#	End of record

