#	Name: ASD01208011
#	Creating user name:	WinNT
#	Creation time:	15. 06. 2019 19:09

#	Modifying user name:	WinNT
#	Modification time:	15. 06. 2019 19:09

#	Program:	/corina/corina34_cracker 3.40 0067  02.08.2006

@<TRIPOS>MOLECULE
ASD01208011
  62   65    0    0    0
SMALL
NO_CHARGES


@<TRIPOS>ATOM
   1 C1            -0.0844     1.4339     0.0275 C.ar    
   2 C2             0.0184     0.0511    -0.0131 C.ar    
   3 C3            -1.1247    -0.7352     0.0260 C.ar    
   4 C4            -2.3734    -0.1415     0.1064 C.ar    
   5 C5            -2.4812     1.2493     0.1480 C.ar    
   6 C6            -1.3290     2.0357     0.1136 C.ar    
   7 C7            -3.8115     1.8873     0.2337 C.2     
   8 C8            -4.0543     3.2301     0.2806 C.2     
   9 N9            -5.0150     1.2340     0.2740 N.pl3   
  10 C10           -6.0153     2.1701     0.3523 C.2     
  11 C11           -5.4388     3.4080     0.3575 C.2     
  12 O12            1.0381     2.1991    -0.0116 O.3     
  13 C13            0.8560     3.6143    -0.0907 C.3     
  14 C14            2.0901     4.2522    -0.7318 C.3     
  15 O15            3.2212     4.0636     0.1209 O.3     
  16 C16            0.6608     4.1829     1.3163 C.3     
  17 O17           -1.0186    -2.0893    -0.0150 O.3     
  18 C18           -1.4874    -2.7329    -1.1161 C.ar    
  19 C19           -1.9380    -2.0044    -2.2077 C.ar    
  20 C20           -1.5112    -4.1198    -1.1531 C.ar    
  21 C21           -1.9883    -4.7716    -2.2736 C.ar    
  22 C22           -2.4415    -4.0432    -3.3581 C.ar    
  23 C23           -2.4141    -2.6611    -3.3259 C.ar    
  24 S24           -3.0489    -4.8777    -4.7861 S.o2    
  25 C25           -4.8234    -5.0826    -4.4701 C.3     
  26 O26           -2.8345    -3.9576    -5.8475 O.2     
  27 O27           -2.3898    -6.1364    -4.7633 O.2     
  28 C28            4.4327     4.6251    -0.3879 C.3     
  29 C29           -7.4629     1.8882     0.4160 C.ar    
  30 C30           -7.9224     0.5676     0.3988 C.ar    
  31 N31           -8.3366     2.8902     0.4956 N.ar    
  32 C32           -9.6302     2.6317     0.5527 C.ar    
  33 C33          -10.0795     1.3232     0.5300 C.ar    
  34 N34           -9.2170     0.3227     0.4564 N.ar    
  35 C35          -11.5575     1.0363     0.5961 C.3     
  36 H36            0.9906    -0.4150    -0.0758 H       
  37 H37           -3.2625    -0.7539     0.1365 H       
  38 H38           -1.4080     3.1124     0.1456 H       
  39 H39           -3.3109     4.0133     0.2621 H       
  40 H40           -5.1390     0.2722     0.2510 H       
  41 H41           -5.9583     4.3533     0.4118 H       
  42 H42           -0.0229     3.8342    -0.6966 H       
  43 H43            2.2810     3.7839    -1.6974 H       
  44 H44            1.9157     5.3188    -0.8735 H       
  45 H45            1.5398     3.9629     1.9222 H       
  46 H46            0.5220     5.2623     1.2559 H       
  47 H47           -0.2184     3.7284     1.7730 H       
  48 H48           -1.9167    -0.9249    -2.1831 H       
  49 H49           -1.1566    -4.6891    -0.3066 H       
  50 H50           -2.0070    -5.8510    -2.3029 H       
  51 H51           -2.7691    -2.0945    -4.1740 H       
  52 H52           -5.2854    -4.1035    -4.3437 H       
  53 H53           -5.2856    -5.5964    -5.3130 H       
  54 H54           -4.9655    -5.6711    -3.5637 H       
  55 H55            5.2432     4.4397     0.3169 H       
  56 H56            4.6722     4.1645    -1.3464 H       
  57 H57            4.3069     5.6994    -0.5224 H       
  58 H58           -7.2190    -0.2496     0.3381 H       
  59 H59          -10.3394     3.4437     0.6176 H       
  60 H60          -11.9666     1.0030    -0.4137 H       
  61 H61          -11.7196     0.0760     1.0856 H       
  62 H62          -12.0552     1.8223     1.1640 H       
@<TRIPOS>BOND
   1    1    2 ar
   2    1   12 1
   3    1    6 ar
   4    2    3 ar
   5    2   36 1
   6    3    4 ar
   7    3   17 1
   8    4    5 ar
   9    4   37 1
  10    5    6 ar
  11    5    7 1
  12    6   38 1
  13    7    8 2
  14    7    9 1
  15    8   11 1
  16    8   39 1
  17    9   10 1
  18    9   40 1
  19   10   11 2
  20   10   29 1
  21   11   41 1
  22   12   13 1
  23   13   14 1
  24   13   16 1
  25   13   42 1
  26   14   15 1
  27   14   43 1
  28   14   44 1
  29   15   28 1
  30   16   45 1
  31   16   46 1
  32   16   47 1
  33   17   18 1
  34   18   19 ar
  35   18   20 ar
  36   19   23 ar
  37   19   48 1
  38   20   21 ar
  39   20   49 1
  40   21   22 ar
  41   21   50 1
  42   22   23 ar
  43   22   24 1
  44   23   51 1
  45   24   25 1
  46   24   26 2
  47   24   27 2
  48   25   52 1
  49   25   53 1
  50   25   54 1
  51   28   55 1
  52   28   56 1
  53   28   57 1
  54   29   30 ar
  55   29   31 ar
  56   30   34 ar
  57   30   58 1
  58   31   32 ar
  59   32   33 ar
  60   32   59 1
  61   33   34 ar
  62   33   35 1
  63   35   60 1
  64   35   61 1
  65   35   62 1

#	End of record

