#	Name: ASD01941009
#	Creating user name:	WinNT
#	Creation time:	15. 06. 2019 20:13

#	Modifying user name:	WinNT
#	Modification time:	15. 06. 2019 20:13

#	Program:	/corina/corina34_cracker 3.40 0067  02.08.2006

@<TRIPOS>MOLECULE
ASD01941009
  50   51    0    0    0
SMALL
NO_CHARGES


@<TRIPOS>ATOM
   1 C1             0.2142     0.8047     0.9198 C.ar    
   2 C2            -0.3175     0.1640    -0.1762 C.ar    
   3 C3             0.4279     0.0296    -1.3404 C.ar    
   4 C4             1.7128     0.5386    -1.4108 C.ar    
   5 C5             2.2642     1.1885    -0.3125 C.ar    
   6 C6             1.5111     1.3245     0.8644 C.ar    
   7 F7            -0.1042    -0.6017    -2.4098 F       
   8 F8             2.4315     0.4034    -2.5467 F       
   9 N9             3.5552     1.7008    -0.3793 N.pl3   
  10 C10            4.6546     0.8455    -0.2507 C.ar    
  11 C11            4.4586    -0.5140    -0.0503 C.ar    
  12 C12            5.5464    -1.3566     0.0759 C.ar    
  13 C13            6.8303    -0.8478     0.0030 C.ar    
  14 C14            7.0308     0.5068    -0.1966 C.ar    
  15 C15            5.9470     1.3547    -0.3290 C.ar    
  16 F16            6.1425     2.6772    -0.5243 F       
  17 I17            8.4754    -2.1305     0.1958 I       
  18 C18            2.0843     2.0111     2.0350 C.2     
  19 O19            3.2062     2.4771     1.9776 O.2     
  20 N20            1.3654     2.1229     3.1695 N.am    
  21 O21            1.9163     2.7829     4.2947 O.3     
  22 C22            1.0451     2.8275     5.4265 C.3     
  23 C23            1.7400     3.5593     6.5765 C.3     
  24 O24            1.9557     4.9239     6.2114 O.3     
  25 C25           -1.7154    -0.3952    -0.1124 C.3     
  26 N26           -2.2753    -0.1597     1.2208 N.am    
  27 C27           -2.7528     1.0580     1.5457 C.2     
  28 O28           -2.3147    -1.2115     2.1680 O.3     
  29 C29           -1.1498    -1.2961     2.9914 C.3     
  30 C30           -3.4322     1.2712     2.8738 C.3     
  31 O31           -2.6357     1.9823     0.7691 O.2     
  32 H32           -0.3719     0.9101     1.8208 H       
  33 H33            3.6933     2.6513    -0.5151 H       
  34 H34            3.4566    -0.9128     0.0072 H       
  35 H35            5.3938    -2.4143     0.2321 H       
  36 H36            8.0346     0.9012    -0.2531 H       
  37 H37            0.4706     1.7512     3.2153 H       
  38 H38            0.1298     3.3559     5.1599 H       
  39 H39            0.8008     1.8117     5.7372 H       
  40 H40            1.1124     3.5162     7.4666 H       
  41 H41            2.6982     3.0829     6.7840 H       
  42 H42            2.3935     5.4495     6.8950 H       
  43 H43           -2.3379     0.0965    -0.8599 H       
  44 H44           -1.6876    -1.4667    -0.3107 H       
  45 H45           -1.0299    -0.3665     3.5478 H       
  46 H46           -1.2580    -2.1261     3.6897 H       
  47 H47           -0.2731    -1.4602     2.3649 H       
  48 H48           -2.6916     1.5641     3.6179 H       
  49 H49           -4.1807     2.0576     2.7769 H       
  50 H50           -3.9158     0.3460     3.1872 H       
@<TRIPOS>BOND
   1    1    2 ar
   2    1    6 ar
   3    1   32 1
   4    2    3 ar
   5    2   25 1
   6    3    4 ar
   7    3    7 1
   8    4    5 ar
   9    4    8 1
  10    5    6 ar
  11    5    9 1
  12    6   18 1
  13    9   10 1
  14    9   33 1
  15   10   11 ar
  16   10   15 ar
  17   11   12 ar
  18   11   34 1
  19   12   13 ar
  20   12   35 1
  21   13   14 ar
  22   13   17 1
  23   14   15 ar
  24   14   36 1
  25   15   16 1
  26   18   19 2
  27   18   20 am
  28   20   21 1
  29   20   37 1
  30   21   22 1
  31   22   23 1
  32   22   38 1
  33   22   39 1
  34   23   24 1
  35   23   40 1
  36   23   41 1
  37   24   42 1
  38   25   26 1
  39   25   43 1
  40   25   44 1
  41   26   27 am
  42   26   28 1
  43   27   30 1
  44   27   31 2
  45   28   29 1
  46   29   45 1
  47   29   46 1
  48   29   47 1
  49   30   48 1
  50   30   49 1
  51   30   50 1

#	End of record

