#	Name: ASD03331402
#	Creating user name:	WinNT
#	Creation time:	15. 06. 2019 20:39

#	Modifying user name:	WinNT
#	Modification time:	15. 06. 2019 20:39

#	Program:	/corina/corina34_cracker 3.40 0067  02.08.2006

@<TRIPOS>MOLECULE
ASD03331402
  61   64    0    0    0
SMALL
NO_CHARGES


@<TRIPOS>ATOM
   1 C1            -0.6382     0.9643     0.4286 C.3     
   2 O2            -0.7154    -0.4534     0.2586 O.3     
   3 C3            -0.1365    -0.9368    -0.9627 C.3     
   4 C4             1.2431    -0.3509    -1.0828 C.2     
   5 C5             1.6818     0.6956    -0.3349 C.2     
   6 C6             0.8172     1.3783     0.6942 C.3     
   7 C7             2.3140    -0.7052    -1.9157 C.2     
   8 N8             3.3089     0.1204    -1.6311 N.2     
   9 N9             2.9525     0.9458    -0.7062 N.pl3   
  10 C10            2.3292    -1.7902    -2.9171 C.2     
  11 O11            1.3416    -2.4802    -3.0808 O.2     
  12 N12            3.4378    -2.0156    -3.6497 N.am    
  13 C13            3.4528    -3.0921    -4.6432 C.3     
  14 C14            2.8649    -2.5795    -5.9595 C.3     
  15 C15            4.8717    -3.5466    -4.8700 C.2     
  16 C16            3.7656     1.9528    -0.1682 C.ar    
  17 C17            4.4805     2.7960    -1.0116 C.ar    
  18 C18            5.2816     3.7891    -0.4770 C.ar    
  19 C19            5.3713     3.9431     0.8938 C.ar    
  20 C20            4.6607     3.1051     1.7355 C.ar    
  21 C21            3.8543     2.1142     1.2076 C.ar    
  22 C22            3.6547    -1.3559    -6.4285 C.3     
  23 C23            2.9516    -3.6795    -7.0194 C.3     
  24 C24            1.4006    -2.1906    -5.7468 C.3     
  25 N25            5.1129    -4.7478    -5.4317 N.am    
  26 O26            5.7964    -2.8314    -4.5471 O.2     
  27 C27            6.4891    -5.2333    -5.5600 C.3     
  28 Cl28           4.7771     3.3030     3.4562 Cl      
  29 F29            4.3933     2.6454    -2.3513 F       
  30 C30            6.4841    -6.5901    -6.2159 C.2     
  31 N31            6.5547    -6.8285    -7.4947 N.2     
  32 O32            6.4117    -7.7761    -5.5886 O.3     
  33 C33            6.4369    -8.7148    -6.5496 C.2     
  34 N34            6.5245    -8.0992    -7.6944 N.2     
  35 C35            6.3795   -10.2062    -6.3412 C.3     
  36 H36           -0.9960     1.4576    -0.4752 H       
  37 H37           -1.2596     1.2624     1.2730 H       
  38 H38           -0.0743    -2.0247    -0.9361 H       
  39 H39           -0.7461    -0.6220    -1.8097 H       
  40 H40            0.9166     2.4598     0.6017 H       
  41 H41            1.1144     1.0632     1.6944 H       
  42 H42            4.2257    -1.4651    -3.5190 H       
  43 H43            2.8566    -3.9295    -4.2807 H       
  44 H44            5.8376     4.4443    -1.1311 H       
  45 H45            5.9976     4.7189     1.3089 H       
  46 H46            3.3002     1.4609     1.8653 H       
  47 H47            4.6979    -1.6330    -6.5801 H       
  48 H48            3.2358    -0.9908    -7.3662 H       
  49 H49            3.5929    -0.5723    -5.6734 H       
  50 H50            2.3866    -4.5502    -6.6865 H       
  51 H51            2.5354    -3.3134    -7.9579 H       
  52 H52            3.9946    -3.9587    -7.1688 H       
  53 H53            1.3388    -1.4069    -4.9916 H       
  54 H54            0.9817    -1.8254    -6.6845 H       
  55 H55            0.8379    -3.0623    -5.4126 H       
  56 H56            4.3753    -5.2908    -5.7509 H       
  57 H57            7.0646    -4.5370    -6.1701 H       
  58 H58            6.9413    -5.3094    -4.5712 H       
  59 H59            5.3401   -10.5343    -6.3485 H       
  60 H60            6.9240   -10.7062    -7.1422 H       
  61 H61            6.8329   -10.4567    -5.3821 H       
@<TRIPOS>BOND
   1    1    2 1
   2    1    6 1
   3    1   36 1
   4    1   37 1
   5    2    3 1
   6    3    4 1
   7    3   38 1
   8    3   39 1
   9    4    5 2
  10    4    7 1
  11    5    6 1
  12    5    9 1
  13    6   40 1
  14    6   41 1
  15    7    8 2
  16    7   10 1
  17    8    9 1
  18    9   16 1
  19   10   11 2
  20   10   12 am
  21   12   13 1
  22   12   42 1
  23   13   14 1
  24   13   15 1
  25   13   43 1
  26   14   22 1
  27   14   23 1
  28   14   24 1
  29   15   25 am
  30   15   26 2
  31   16   17 ar
  32   16   21 ar
  33   17   18 ar
  34   17   29 1
  35   18   19 ar
  36   18   44 1
  37   19   20 ar
  38   19   45 1
  39   20   21 ar
  40   20   28 1
  41   21   46 1
  42   22   47 1
  43   22   48 1
  44   22   49 1
  45   23   50 1
  46   23   51 1
  47   23   52 1
  48   24   53 1
  49   24   54 1
  50   24   55 1
  51   25   27 1
  52   25   56 1
  53   27   30 1
  54   27   57 1
  55   27   58 1
  56   30   31 2
  57   30   32 1
  58   31   34 1
  59   32   33 1
  60   33   34 2
  61   33   35 1
  62   35   59 1
  63   35   60 1
  64   35   61 1

#	End of record

