#	Name: ASD01140427
#	Creating user name:	WinNT
#	Creation time:	15. 06. 2019 19:00

#	Modifying user name:	WinNT
#	Modification time:	15. 06. 2019 19:00

#	Program:	/corina/corina34_cracker 3.40 0067  02.08.2006

@<TRIPOS>MOLECULE
ASD01140427
  42   44    0    0    0
SMALL
NO_CHARGES


@<TRIPOS>ATOM
   1 C1            -0.0168     1.3846     0.0097 C.ar    
   2 C2             0.0021    -0.0041     0.0020 C.ar    
   3 N3            -1.1185    -0.6993     0.0094 N.ar    
   4 C4            -2.2995    -0.1174     0.0243 C.ar    
   5 C5            -2.4074     1.2756     0.0329 C.ar    
   6 C6            -1.2371     2.0454     0.0307 C.ar    
   7 O7             1.1462     2.0882     0.0023 O.3     
   8 C8             2.3602     1.3346    -0.0133 C.3     
   9 C9             3.5542     2.2913    -0.0196 C.3     
  10 C10           -3.6931     1.9059     0.0491 C.1     
  11 C11           -4.7472     2.4227     0.0624 C.1     
  12 C12            4.8743     1.5038    -0.1625 C.3     
  13 C13            5.8840     2.2475     0.7358 C.3     
  14 C14            5.0890     3.4218     1.3459 C.3     
  15 N15            3.6708     2.9829     1.2900 N.3     
  16 C16            2.7604     4.1336     1.3605 C.3     
  17 C17           -6.0329     3.0530     0.0786 C.ar    
  18 C18           -6.1314     4.4469     0.0870 C.ar    
  19 C19           -7.3731     5.0469     0.1027 C.ar    
  20 C20           -8.5197     4.2722     0.1100 C.ar    
  21 C21           -8.4299     2.8913     0.1022 C.ar    
  22 C22           -7.1951     2.2773     0.0802 C.ar    
  23 H23            0.9493    -0.5227    -0.0106 H       
  24 H24           -3.1938    -0.7229     0.0296 H       
  25 H25           -1.2833     3.1244     0.0371 H       
  26 H26            2.4064     0.7016     0.8729 H       
  27 H27            2.3894     0.7112    -0.9070 H       
  28 H28            3.4549     3.0166    -0.8271 H       
  29 H29            4.7430     0.4786     0.1837 H       
  30 H30            5.2108     1.5139    -1.1992 H       
  31 H31            6.2483     1.5874     1.5230 H       
  32 H32            6.7161     2.6227     0.1400 H       
  33 H33            5.3940     3.5915     2.3786 H       
  34 H34            5.2309     4.3256     0.7533 H       
  35 H35            2.9515     4.8002     0.5195 H       
  36 H36            1.7289     3.7838     1.3199 H       
  37 H37            2.9254     4.6707     2.2946 H       
  38 H38           -5.2374     5.0528     0.0817 H       
  39 H39           -7.4508     6.1241     0.1096 H       
  40 H40           -9.4894     4.7476     0.1223 H       
  41 H41           -9.3290     2.2930     0.1083 H       
  42 H42           -7.1266     1.1995     0.0689 H       
@<TRIPOS>BOND
   1    1    2 ar
   2    1    7 1
   3    1    6 ar
   4    2    3 ar
   5    2   23 1
   6    3    4 ar
   7    4    5 ar
   8    4   24 1
   9    5    6 ar
  10    5   10 1
  11    6   25 1
  12    7    8 1
  13    8    9 1
  14    8   26 1
  15    8   27 1
  16    9   12 1
  17    9   15 1
  18    9   28 1
  19   10   11 3
  20   11   17 1
  21   12   13 1
  22   12   29 1
  23   12   30 1
  24   13   14 1
  25   13   31 1
  26   13   32 1
  27   14   15 1
  28   14   33 1
  29   14   34 1
  30   15   16 1
  31   16   35 1
  32   16   36 1
  33   16   37 1
  34   17   18 ar
  35   17   22 ar
  36   18   19 ar
  37   18   38 1
  38   19   20 ar
  39   19   39 1
  40   20   21 ar
  41   20   40 1
  42   21   22 ar
  43   21   41 1
  44   22   42 1

#	End of record

