#	Name: ASD08150583
#	Creating user name:	WinNT
#	Creation time:	15. 06. 2019 21:16

#	Modifying user name:	WinNT
#	Modification time:	15. 06. 2019 21:16

#	Program:	/corina/corina34_cracker 3.40 0067  02.08.2006

@<TRIPOS>MOLECULE
ASD08150583
  48   53    0    0    0
SMALL
NO_CHARGES


@<TRIPOS>ATOM
   1 N1             0.1726     1.5741     1.9371 N.am    
   2 C2             0.2632     0.3222     2.4263 C.2     
   3 C3             1.4804    -0.3872     2.3788 C.2     
   4 C4             2.5845     0.1864     1.8361 C.2     
   5 C5             2.4928     1.5035     1.3205 C.ar    
   6 C6             3.6073     2.1441     0.7462 C.ar    
   7 N7             3.5198     3.3588     0.2705 N.ar    
   8 C8             2.3766     4.0604     0.3000 C.ar    
   9 C9             1.2045     3.4946     0.8595 C.ar    
  10 C10            1.2657     2.1818     1.3831 C.ar    
  11 C11            0.0029     5.5177     0.3635 C.ar    
  12 C12            1.1667     6.0706    -0.1890 C.ar    
  13 C13            2.3277     5.3634    -0.2223 C.ar    
  14 O14           -0.7209    -0.2044     2.9172 O.2     
  15 C15           -1.0500     2.2557     1.9910 C.ar    
  16 C16           -1.3518     3.0581     3.0846 C.ar    
  17 C17           -2.5589     3.7295     3.1352 C.ar    
  18 C18           -3.4666     3.6023     2.0975 C.ar    
  19 C19           -3.1674     2.8024     1.0069 C.ar    
  20 C20           -1.9599     2.1350     0.9490 C.ar    
  21 C21            0.0185     4.2346     0.8864 C.ar    
  22 C22           -1.2508     6.3097     0.3884 C.ar    
  23 C23           -1.2098     7.6754     0.6271 C.ar    
  24 C24           -2.4877     5.6833     0.1646 C.ar    
  25 N25           -3.6095     6.3571     0.1802 N.ar    
  26 C26           -3.6344     7.6746     0.4098 C.ar    
  27 C27           -2.4264     8.3797     0.6396 C.ar    
  28 Cl28          -0.2141     3.2168     4.3862 Cl      
  29 F29           -4.6462     4.2589     2.1489 F       
  30 C30           -4.8495     8.3812     0.4231 C.ar    
  31 C31           -4.8500     9.7215     0.6594 C.ar    
  32 C32           -3.6617    10.4121     0.8895 C.ar    
  33 C33           -2.4647     9.7636     0.8801 C.ar    
  34 H34            1.5349    -1.3901     2.7757 H       
  35 H35            3.5194    -0.3528     1.7981 H       
  36 H36            4.5519     1.6228     0.6981 H       
  37 H37            1.1407     7.0715    -0.5940 H       
  38 H38            3.2150     5.8050    -0.6513 H       
  39 H39           -2.7943     4.3534     3.9848 H       
  40 H40           -3.8772     2.7044     0.1989 H       
  41 H41           -1.7274     1.5116     0.0982 H       
  42 H42           -0.8788     3.8092     1.3111 H       
  43 H43           -0.2717     8.1823     0.7985 H       
  44 H44           -2.5138     4.6205    -0.0253 H       
  45 H45           -5.7798     7.8621     0.2461 H       
  46 H46           -5.7868    10.2589     0.6684 H       
  47 H47           -3.6903    11.4759     1.0737 H       
  48 H48           -1.5501    10.3092     1.0598 H       
@<TRIPOS>BOND
   1    1    2 am
   2    1   10 1
   3    1   15 1
   4    2    3 1
   5    2   14 2
   6    3    4 2
   7    3   34 1
   8    4    5 1
   9    4   35 1
  10    5    6 ar
  11    5   10 ar
  12    6    7 ar
  13    6   36 1
  14    7    8 ar
  15    8    9 ar
  16    8   13 ar
  17    9   10 ar
  18    9   21 ar
  19   11   12 ar
  20   11   22 1
  21   11   21 ar
  22   12   13 ar
  23   12   37 1
  24   13   38 1
  25   15   16 ar
  26   15   20 ar
  27   16   17 ar
  28   16   28 1
  29   17   18 ar
  30   17   39 1
  31   18   19 ar
  32   18   29 1
  33   19   20 ar
  34   19   40 1
  35   20   41 1
  36   21   42 1
  37   22   23 ar
  38   22   24 ar
  39   23   27 ar
  40   23   43 1
  41   24   25 ar
  42   24   44 1
  43   25   26 ar
  44   26   27 ar
  45   26   30 ar
  46   27   33 ar
  47   30   31 ar
  48   30   45 1
  49   31   32 ar
  50   31   46 1
  51   32   33 ar
  52   32   47 1
  53   33   48 1

#	End of record

