#	Name: ASD02198140
#	Creating user name:	WinNT
#	Creation time:	15. 06. 2019 20:18

#	Modifying user name:	WinNT
#	Modification time:	15. 06. 2019 20:18

#	Program:	/corina/corina34_cracker 3.40 0067  02.08.2006

@<TRIPOS>MOLECULE
ASD02198140
  46   48    0    0    0
SMALL
NO_CHARGES


@<TRIPOS>ATOM
   1 C1            -0.0831     1.3833     0.7799 C.2     
   2 C2            -0.0657     0.0059     0.8090 C.2     
   3 C3            -1.2349    -0.7938     0.5994 C.1     
   4 S4             1.4729     2.0182     1.0668 S.3     
   5 C5             2.1691     0.4140     1.2303 C.2     
   6 C6             1.1914    -0.5390     1.0604 C.2     
   7 C7             3.5263     0.1435     1.4955 C.2     
   8 C8             4.4824     1.2560     1.6583 C.2     
   9 O9             3.9110    -1.0101     1.5904 O.2     
  10 N10            1.4325    -1.9018     1.1329 N.pl3   
  11 N11           -1.2080     2.1464     0.5444 N.am    
  12 N12           -2.1625    -1.4282     0.4332 N.1     
  13 O13            4.2098     2.5716     1.5824 O.3     
  14 C14           -1.1204     3.4913     0.5367 C.2     
  15 C15           -2.3254     4.3088     0.2844 C.ar    
  16 N16            5.1979     3.2448     1.7593 N.2     
  17 C17            6.2581     2.5057     1.9755 C.2     
  18 C18            5.8205     1.1549     1.9223 C.2     
  19 C19            7.6379     2.9836     2.2309 C.2     
  20 O20            8.5327     2.1842     2.4161 O.2     
  21 O21            7.8988     4.3043     2.2574 O.3     
  22 O22           -0.0504     4.0318     0.7372 O.2     
  23 C23           -3.5769     3.6993     0.1801 C.ar    
  24 C24           -4.6978     4.4684    -0.0556 C.ar    
  25 C25           -4.5835     5.8406    -0.1885 C.ar    
  26 C26           -3.3458     6.4513    -0.0863 C.ar    
  27 C27           -2.2179     5.6949     0.1549 C.ar    
  28 C28           -0.8711     6.3616     0.2663 C.3     
  29 C29            9.2723     4.6999     2.5131 C.3     
  30 C30            9.3732     6.2265     2.5054 C.3     
  31 H31            2.3287    -2.2270     1.3115 H       
  32 H32            0.7050    -2.5305     1.0049 H       
  33 H33           -2.0619     1.7151     0.3844 H       
  34 H34            6.4083     0.2583     2.0528 H       
  35 H35           -3.6674     2.6280     0.2834 H       
  36 H36           -5.6666     3.9980    -0.1368 H       
  37 H37           -5.4640     6.4380    -0.3733 H       
  38 H38           -3.2635     7.5230    -0.1915 H       
  39 H39           -0.6333     6.5269     1.3172 H       
  40 H40           -0.1108     5.7220    -0.1819 H       
  41 H41           -0.8949     7.3182    -0.2556 H       
  42 H42            9.5848     4.3200     3.4858 H       
  43 H43            9.9190     4.2891     1.7377 H       
  44 H44            9.0607     6.6064     1.5327 H       
  45 H45            8.7265     6.6373     3.2807 H       
  46 H46           10.4043     6.5235     2.6973 H       
@<TRIPOS>BOND
   1    1    2 2
   2    1    4 1
   3    1   11 1
   4    2    3 1
   5    2    6 1
   6    3   12 3
   7    4    5 1
   8    5    6 2
   9    5    7 1
  10    6   10 1
  11    7    8 1
  12    7    9 2
  13    8   13 1
  14    8   18 2
  15   10   31 1
  16   10   32 1
  17   11   14 am
  18   11   33 1
  19   13   16 1
  20   14   15 1
  21   14   22 2
  22   15   23 ar
  23   15   27 ar
  24   16   17 2
  25   17   18 1
  26   17   19 1
  27   18   34 1
  28   19   20 2
  29   19   21 1
  30   21   29 1
  31   23   24 ar
  32   23   35 1
  33   24   25 ar
  34   24   36 1
  35   25   26 ar
  36   25   37 1
  37   26   27 ar
  38   26   38 1
  39   27   28 1
  40   28   39 1
  41   28   40 1
  42   28   41 1
  43   29   30 1
  44   29   42 1
  45   29   43 1
  46   30   44 1
  47   30   45 1
  48   30   46 1

#	End of record

