#	Name: ASD01230096
#	Creating user name:	WinNT
#	Creation time:	15. 06. 2019 19:11

#	Modifying user name:	WinNT
#	Modification time:	15. 06. 2019 19:11

#	Program:	/corina/corina34_cracker 3.40 0067  02.08.2006

@<TRIPOS>MOLECULE
ASD01230096
  65   69    0    0    0
SMALL
NO_CHARGES


@<TRIPOS>ATOM
   1 C1            -0.0166     1.3746     0.0096 C.2     
   2 C2             0.0021    -0.0041     0.0020 C.2     
   3 C3            -1.3406    -0.4406     0.0130 C.2     
   4 N4            -2.1091     0.6141     0.0263 N.2     
   5 N5            -1.3051     1.7596     0.0299 N.pl3   
   6 C6            -1.7856     3.1435     0.0438 C.3     
   7 C7             1.1858     2.2831     0.0030 C.3     
   8 O8             1.5787     2.5630     1.3481 O.3     
   9 C9             2.6536     3.3729     1.5200 C.ar    
  10 C10            3.0837     3.6817     2.8038 C.ar    
  11 C11            4.1816     4.5090     2.9655 C.ar    
  12 C12            4.8129     5.0003     1.8314 C.ar    
  13 C13            4.3307     4.6516     0.5853 C.ar    
  14 N14            3.2851     3.8564     0.4630 N.ar    
  15 C15            1.2024    -0.8636    -0.0145 C.2     
  16 O16            2.4803    -0.4528    -0.0245 O.3     
  17 N17            3.2225    -1.4118    -0.0365 N.2     
  18 C18            2.5311    -2.5225    -0.0356 C.2     
  19 N19            1.2248    -2.1842    -0.0165 N.2     
  20 C20            3.0820    -3.9007    -0.0483 C.ar    
  21 C21            4.4620    -4.0991    -0.0623 C.ar    
  22 C22            2.2192    -4.9959    -0.0404 C.ar    
  23 C23            2.7292    -6.2753    -0.0522 C.ar    
  24 C24            4.1112    -6.4753    -0.0720 C.ar    
  25 C25            4.9745    -5.3776    -0.0746 C.ar    
  26 C26            4.6598    -7.8478    -0.0841 C.2     
  27 N27            5.9936    -8.0402    -0.1033 N.am    
  28 O28            3.9080    -8.8030    -0.0769 O.2     
  29 C29            6.5374    -9.4005    -0.1153 C.3     
  30 C30            8.0660    -9.3386    -0.1363 C.3     
  31 N31            8.6112   -10.7026    -0.1484 N.3     
  32 C32           10.0626   -10.6892    -0.4075 C.3     
  33 C33           10.7442   -11.4163     0.7707 C.3     
  34 C34            9.6031   -12.2963     1.3454 C.3     
  35 C35            8.3698   -11.3811     1.1428 C.3     
  36 F36           11.8013   -12.2119     0.3161 F       
  37 C37            6.0116     5.9048     1.9584 C.3     
  38 F38            7.1778     5.1326     1.9848 F       
  39 F39            6.0549     6.7778     0.8661 F       
  40 F40            5.9147     6.6438     3.1424 F       
  41 H41           -1.6735    -1.4680     0.0105 H       
  42 H42           -1.8984     3.4786     1.0749 H       
  43 H43           -1.0673     3.7827    -0.4695 H       
  44 H44           -2.7487     3.1988    -0.4636 H       
  45 H45            2.0072     1.7948    -0.5213 H       
  46 H46            0.9343     3.2149    -0.5035 H       
  47 H47            2.5683     3.2819     3.6646 H       
  48 H48            4.5385     4.7667     3.9517 H       
  49 H49            4.8181     5.0315    -0.3005 H       
  50 H50            5.1295    -3.2501    -0.0640 H       
  51 H51            1.1505    -4.8409    -0.0247 H       
  52 H52            2.0606    -7.1234    -0.0457 H       
  53 H53            6.0434    -5.5310    -0.0903 H       
  54 H54            6.5936    -7.2780    -0.1091 H       
  55 H55            6.2075    -9.9316     0.7776 H       
  56 H56            6.1828    -9.9257    -1.0022 H       
  57 H57            8.3959    -8.8075    -1.0292 H       
  58 H58            8.4206    -8.8134     0.7506 H       
  59 H59           10.2777   -11.2113    -1.3398 H       
  60 H60           10.4196    -9.6609    -0.4650 H       
  61 H61           11.0917   -10.7008     1.5160 H       
  62 H62            9.5001   -13.2215     0.7783 H       
  63 H63            9.7653   -12.5044     2.4030 H       
  64 H64            8.3030   -10.6504     1.9488 H       
  65 H65            7.4587   -11.9774     1.0936 H       
@<TRIPOS>BOND
   1    1    2 2
   2    1    7 1
   3    1    5 1
   4    2    3 1
   5    2   15 1
   6    3    4 2
   7    3   41 1
   8    4    5 1
   9    5    6 1
  10    6   42 1
  11    6   43 1
  12    6   44 1
  13    7    8 1
  14    7   45 1
  15    7   46 1
  16    8    9 1
  17    9   10 ar
  18    9   14 ar
  19   10   11 ar
  20   10   47 1
  21   11   12 ar
  22   11   48 1
  23   12   37 1
  24   12   13 ar
  25   13   14 ar
  26   13   49 1
  27   15   16 1
  28   15   19 2
  29   16   17 1
  30   17   18 2
  31   18   19 1
  32   18   20 1
  33   20   21 ar
  34   20   22 ar
  35   21   25 ar
  36   21   50 1
  37   22   23 ar
  38   22   51 1
  39   23   24 ar
  40   23   52 1
  41   24   25 ar
  42   24   26 1
  43   25   53 1
  44   26   27 am
  45   26   28 2
  46   27   29 1
  47   27   54 1
  48   29   30 1
  49   29   55 1
  50   29   56 1
  51   30   31 1
  52   30   57 1
  53   30   58 1
  54   31   32 1
  55   31   35 1
  56   32   33 1
  57   32   59 1
  58   32   60 1
  59   33   34 1
  60   33   36 1
  61   33   61 1
  62   34   35 1
  63   34   62 1
  64   34   63 1
  65   35   64 1
  66   35   65 1
  67   37   38 1
  68   37   39 1
  69   37   40 1

#	End of record

