#	Name: ASD00061038
#	Creating user name:	WinNT
#	Creation time:	15. 06. 2019 18:29

#	Modifying user name:	WinNT
#	Modification time:	15. 06. 2019 18:29

#	Program:	/corina/corina34_cracker 3.40 0067  02.08.2006

@<TRIPOS>MOLECULE
ASD00061038
  49   51    0    0    0
SMALL
NO_CHARGES


@<TRIPOS>ATOM
   1 C1            -0.3325     3.8858    -0.5993 C.ar    
   2 C2            -0.8012     2.6016    -0.8152 C.ar    
   3 C3             0.0808     1.5369    -0.8798 C.ar    
   4 C4             1.4349     1.7486    -0.7288 C.ar    
   5 C5             1.9164     3.0433    -0.5104 C.ar    
   6 C6             1.0188     4.1139    -0.4469 C.ar    
   7 C7             3.3602     3.2780    -0.3482 C.2     
   8 C8             3.8748     4.6747    -0.1129 C.3     
   9 O9             4.1357     2.3475    -0.4038 O.2     
  10 C10            5.3753     4.6226     0.1813 C.3     
  11 C11            5.9167     6.0254     0.2810 C.2     
  12 S12            5.3828     7.2332     1.4416 S.3     
  13 C13            6.5178     8.4095     0.7932 C.2     
  14 C14            7.2101     7.8563    -0.2195 C.2     
  15 C15            6.8737     6.5316    -0.4926 C.2     
  16 C16            8.2499     8.5937    -0.9787 C.ar    
  17 C17            8.5467     9.9161    -0.6545 C.ar    
  18 C18            9.5148    10.5972    -1.3641 C.ar    
  19 C19           10.1897     9.9698    -2.3957 C.ar    
  20 C20            9.8991     8.6573    -2.7219 C.ar    
  21 C21            8.9372     7.9646    -2.0150 C.ar    
  22 C22           -2.2797     2.3611    -0.9804 C.3     
  23 F23           -2.6205     2.4630    -2.3334 F       
  24 F24           -2.5990     1.0813    -0.5141 F       
  25 F25           -2.9922     3.3159    -0.2468 F       
  26 C26            5.6106     3.8899     1.5037 C.3     
  27 C27            7.0841     3.8846     1.8198 C.2     
  28 O28            7.4839     4.3840     2.8448 O.2     
  29 O29            7.9524     3.3251     0.9626 O.3     
  30 C30            4.8627     4.5926     2.6072 C.2     
  31 O31            5.4299     5.4039     3.3001 O.2     
  32 O32            3.5664     4.3172     2.8205 O.3     
  33 H33           -1.0266     4.7120    -0.5546 H       
  34 H34           -0.2926     0.5377    -1.0486 H       
  35 H35            2.1219     0.9167    -0.7788 H       
  36 H36            1.3831     5.1166    -0.2788 H       
  37 H37            3.6996     5.2810    -1.0017 H       
  38 H38            3.3531     5.1159     0.7364 H       
  39 H39            5.8851     4.0927    -0.6234 H       
  40 H40            6.6401     9.4207     1.1522 H       
  41 H41            7.3479     5.9619    -1.2780 H       
  42 H42            8.0199    10.4071     0.1504 H       
  43 H43            9.7457    11.6221    -1.1136 H       
  44 H44           10.9460    10.5068    -2.9489 H       
  45 H45           10.4291     8.1724    -3.5283 H       
  46 H46            8.7114     6.9398    -2.2703 H       
  47 H47            5.2535     2.8636     1.4190 H       
  48 H48            8.8926     3.4112     1.1713 H       
  49 H49            3.1290     4.7931     3.5398 H       
@<TRIPOS>BOND
   1    1    2 ar
   2    1    6 ar
   3    1   33 1
   4    2    3 ar
   5    2   22 1
   6    3    4 ar
   7    3   34 1
   8    4    5 ar
   9    4   35 1
  10    5    6 ar
  11    5    7 1
  12    6   36 1
  13    7    8 1
  14    7    9 2
  15    8   10 1
  16    8   37 1
  17    8   38 1
  18   10   11 1
  19   10   26 1
  20   10   39 1
  21   11   12 1
  22   11   15 2
  23   12   13 1
  24   13   14 2
  25   13   40 1
  26   14   15 1
  27   14   16 1
  28   15   41 1
  29   16   17 ar
  30   16   21 ar
  31   17   18 ar
  32   17   42 1
  33   18   19 ar
  34   18   43 1
  35   19   20 ar
  36   19   44 1
  37   20   21 ar
  38   20   45 1
  39   21   46 1
  40   22   23 1
  41   22   24 1
  42   22   25 1
  43   26   27 1
  44   26   30 1
  45   26   47 1
  46   27   28 2
  47   27   29 1
  48   29   48 1
  49   30   31 2
  50   30   32 1
  51   32   49 1

#	End of record

