#	Name: ASD01901271
#	Creating user name:	WinNT
#	Creation time:	15. 06. 2019 19:53

#	Modifying user name:	WinNT
#	Modification time:	15. 06. 2019 19:53

#	Program:	/corina/corina34_cracker 3.40 0067  02.08.2006

@<TRIPOS>MOLECULE
ASD01901271
  49   52    0    0    0
SMALL
NO_CHARGES


@<TRIPOS>ATOM
   1 C1             0.8747     1.3397     0.9724 C.ar    
   2 C2             0.8315    -0.0369     0.8998 C.ar    
   3 C3             0.9078    -0.6712    -0.3278 C.ar    
   4 C4             1.0273     0.0693    -1.4906 C.ar    
   5 C5             1.0713     1.4466    -1.4337 C.ar    
   6 C6             0.9953     2.0941    -0.1977 C.ar    
   7 C7             1.0403     3.5238    -0.1304 C.1     
   8 C8             1.0772     4.6960    -0.0753 C.1     
   9 C9             1.1222     6.1257    -0.0081 C.ar    
  10 C10            1.0998     8.1637     1.2419 C.ar    
  11 C11            1.0519     6.7828     1.2291 C.ar    
  12 C12            1.2427     6.8869    -1.1731 C.ar    
  13 N13            1.2852     8.2015    -1.1143 N.ar    
  14 C14            1.2161     8.8515     0.0371 C.ar    
  15 N15            1.2645    10.2467     0.0435 N.am    
  16 N16            2.5807    12.2017     0.1390 N.am    
  17 C17            2.4536    10.8636     0.1273 C.2     
  18 C18            0.1143    10.9498    -0.0405 C.2     
  19 C19            0.1930    12.4211    -0.0318 C.ar    
  20 C20            1.4619    13.0188     0.0635 C.ar    
  21 C21            1.5699    14.4010     0.0739 C.ar    
  22 C22           -0.9476    13.2165    -0.1153 C.ar    
  23 C23           -0.8205    14.5896    -0.1036 C.ar    
  24 C24            0.4311    15.1779    -0.0031 C.ar    
  25 C25            3.9133    12.8031     0.2328 C.3     
  26 O26           -0.9585    10.3831    -0.1216 O.2     
  27 Cl27           1.0164     9.0311     2.7434 Cl      
  28 O28            3.4586    10.1831     0.1961 O.2     
  29 C29            4.4771    13.0155    -1.1735 C.3     
  30 O30            3.6773    13.9751    -1.8675 O.3     
  31 C31            4.1206    14.2477    -3.1983 C.3     
  32 H32            0.8109     1.8335     1.9308 H       
  33 H33            0.7383    -0.6213     1.8032 H       
  34 H34            0.8742    -1.7495    -0.3784 H       
  35 H35            1.0867    -0.4325    -2.4451 H       
  36 H36            1.1650     2.0233    -2.3421 H       
  37 H37            0.9622     6.2235     2.1486 H       
  38 H38            1.3019     6.3922    -2.1314 H       
  39 H39            2.5411    14.8682     0.1423 H       
  40 H40           -1.9242    12.7611    -0.1890 H       
  41 H41           -1.7016    15.2106    -0.1685 H       
  42 H42            0.5168    16.2544     0.0051 H       
  43 H43            3.8436    13.7627     0.7451 H       
  44 H44            4.5727    12.1396     0.7923 H       
  45 H45            5.5020    13.3797    -1.1029 H       
  46 H46            4.4640    12.0706    -1.7168 H       
  47 H47            3.4618    14.9851    -3.6569 H       
  48 H48            5.1381    14.6375    -3.1697 H       
  49 H49            4.1001    13.3283    -3.7836 H       
@<TRIPOS>BOND
   1    1    2 ar
   2    1    6 ar
   3    1   32 1
   4    2    3 ar
   5    2   33 1
   6    3    4 ar
   7    3   34 1
   8    4    5 ar
   9    4   35 1
  10    5    6 ar
  11    5   36 1
  12    6    7 1
  13    7    8 3
  14    8    9 1
  15    9   12 ar
  16    9   11 ar
  17   10   11 ar
  18   10   14 ar
  19   10   27 1
  20   11   37 1
  21   12   13 ar
  22   12   38 1
  23   13   14 ar
  24   14   15 1
  25   15   18 am
  26   15   17 am
  27   16   17 am
  28   16   20 1
  29   16   25 1
  30   17   28 2
  31   18   19 1
  32   18   26 2
  33   19   22 ar
  34   19   20 ar
  35   20   21 ar
  36   21   24 ar
  37   21   39 1
  38   22   23 ar
  39   22   40 1
  40   23   24 ar
  41   23   41 1
  42   24   42 1
  43   25   29 1
  44   25   43 1
  45   25   44 1
  46   29   30 1
  47   29   45 1
  48   29   46 1
  49   30   31 1
  50   31   47 1
  51   31   48 1
  52   31   49 1

#	End of record

