#	Name: ASD03090802
#	Creating user name:	WinNT
#	Creation time:	15. 06. 2019 20:29

#	Modifying user name:	WinNT
#	Modification time:	15. 06. 2019 20:29

#	Program:	/corina/corina34_cracker 3.40 0067  02.08.2006

@<TRIPOS>MOLECULE
ASD03090802
  42   44    0    0    0
SMALL
NO_CHARGES


@<TRIPOS>ATOM
   1 N1            -0.1189     1.0728     0.3199 N.pl3   
   2 N2            -0.0105    -0.2892    -0.0044 N.2     
   3 C3             1.1119     1.4701     0.7127 C.2     
   4 N4             1.9179     0.4303     0.6360 N.2     
   5 C5             1.2402    -0.6334     0.2026 C.2     
   6 C6            -1.3251     1.9005     0.2419 C.3     
   7 C7            -2.0655     1.8504     1.5799 C.3     
   8 C8            -3.2558     2.8109     1.5405 C.3     
   9 O9            -2.5337     0.5210     1.8157 O.3     
  10 C10           -3.9217     2.8545     2.9173 C.3     
  11 N11            1.7739    -1.9077     0.0017 N.pl3   
  12 C12            3.1485    -2.1235     0.1576 C.ar    
  13 C13            3.6627    -3.4138     0.0907 C.ar    
  14 C14            4.0006    -1.0493     0.3734 C.ar    
  15 C15            5.3575    -1.2632     0.5268 C.ar    
  16 C16            5.8691    -2.5475     0.4651 C.ar    
  17 C17            5.0223    -3.6235     0.2449 C.ar    
  18 F18            2.8366    -4.4610    -0.1239 F       
  19 F19            7.1960    -2.7529     0.6145 F       
  20 C20            1.4882     2.8328     1.1510 C.ar    
  21 C21            2.8279     3.2340     1.1795 C.ar    
  22 C22            3.1351     4.5149     1.5953 C.ar    
  23 N23            2.1846     5.3545     1.9621 N.ar    
  24 C24            0.9087     5.0157     1.9498 C.ar    
  25 C25            0.5134     3.7565     1.5424 C.ar    
  26 Cl26           4.7933     5.0272     1.6367 Cl      
  27 Cl27          -0.2889     6.1705     2.4459 Cl      
  28 F28            5.5236    -4.8767     0.1854 F       
  29 H29           -1.0454     2.9303     0.0198 H       
  30 H30           -1.9749     1.5222    -0.5472 H       
  31 H31           -1.3877     2.1444     2.3814 H       
  32 H32           -2.9086     3.8089     1.2730 H       
  33 H33           -3.9765     2.4660     0.7991 H       
  34 H34           -3.1428     0.1929     1.1402 H       
  35 H35           -4.7696     3.5388     2.8892 H       
  36 H36           -4.2688     1.8565     3.1848 H       
  37 H37           -3.2009     3.1994     3.6587 H       
  38 H38            1.1924    -2.6435    -0.2459 H       
  39 H39            3.6033    -0.0462     0.4212 H       
  40 H40            6.0195    -0.4266     0.6947 H       
  41 H41            3.6106     2.5522     0.8812 H       
  42 H42           -0.5322     3.4862     1.5345 H       
@<TRIPOS>BOND
   1    1    2 1
   2    1    3 1
   3    1    6 1
   4    2    5 2
   5    3    4 2
   6    3   20 1
   7    4    5 1
   8    5   11 1
   9    6    7 1
  10    6   29 1
  11    6   30 1
  12    7    8 1
  13    7    9 1
  14    7   31 1
  15    8   10 1
  16    8   32 1
  17    8   33 1
  18    9   34 1
  19   10   35 1
  20   10   36 1
  21   10   37 1
  22   11   12 1
  23   11   38 1
  24   12   13 ar
  25   12   14 ar
  26   13   18 1
  27   13   17 ar
  28   14   15 ar
  29   14   39 1
  30   15   16 ar
  31   15   40 1
  32   16   17 ar
  33   16   19 1
  34   17   28 1
  35   20   21 ar
  36   20   25 ar
  37   21   22 ar
  38   21   41 1
  39   22   23 ar
  40   22   26 1
  41   23   24 ar
  42   24   25 ar
  43   24   27 1
  44   25   42 1

#	End of record

