#	Name: ASD02508162
#	Creating user name:	WinNT
#	Creation time:	15. 06. 2019 20:23

#	Modifying user name:	WinNT
#	Modification time:	15. 06. 2019 20:23

#	Program:	/corina/corina34_cracker 3.40 0067  02.08.2006

@<TRIPOS>MOLECULE
ASD02508162
  38   40    0    0    0
SMALL
NO_CHARGES


@<TRIPOS>ATOM
   1 C1             0.1991     1.5876    -0.5897 C.ar    
   2 C2             1.1793     1.9441     0.3566 C.ar    
   3 C3             0.4100     0.4864    -1.3885 C.ar    
   4 C4             1.5995    -0.2520    -1.2359 C.ar    
   5 C5             2.5459     0.1070    -0.3088 C.ar    
   6 C6             2.3344     1.2154     0.4938 C.ar    
   7 S7            -1.3203     2.4210    -0.8873 S.3     
   8 C8            -2.0157     1.4469    -2.1668 C.2     
   9 S9            -0.8900     0.1531    -2.5247 S.3     
  10 S10            4.0238    -0.8377    -0.1415 S.o2    
  11 N11            4.0066    -1.5110     1.3714 N.am    
  12 C12            2.9779    -2.4924     1.7247 C.3     
  13 O13           -3.0875     1.6372    -2.7120 O.2     
  14 O14            3.9174    -1.9155    -1.0615 O.2     
  15 O15            5.0981     0.0922    -0.1546 O.2     
  16 C16            3.5834    -3.5591     2.6393 C.3     
  17 C17            1.8303    -1.7889     2.4520 C.3     
  18 C18            0.7559    -2.8138     2.8210 C.3     
  19 C19            1.3614    -3.8805     3.7356 C.3     
  20 C20            2.5091    -4.5841     3.0083 C.3     
  21 C21            3.3667     1.6185     1.5151 C.3     
  22 H22            1.0194     2.8072     0.9857 H       
  23 H23            1.7701    -1.1169    -1.8597 H       
  24 H24            4.6777    -1.2556     2.0236 H       
  25 H25            2.5988    -2.9638     0.8181 H       
  26 H26            4.4010    -4.0603     2.1212 H       
  27 H27            3.9626    -3.0877     3.5460 H       
  28 H28            2.2094    -1.3175     3.3587 H       
  29 H29            1.3989    -1.0289     1.8005 H       
  30 H30           -0.0617    -2.3126     3.3391 H       
  31 H31            0.3768    -3.2852     1.9143 H       
  32 H32            1.7406    -3.4091     4.6423 H       
  33 H33            0.5961    -4.6107     3.9985 H       
  34 H34            2.1299    -5.0555     2.1016 H       
  35 H35            2.9405    -5.3440     3.6598 H       
  36 H36            4.1287     2.2346     1.0377 H       
  37 H37            2.8869     2.1866     2.3120 H       
  38 H38            3.8311     0.7259     1.9341 H       
@<TRIPOS>BOND
   1    1    2 ar
   2    1    3 ar
   3    1    7 1
   4    2    6 ar
   5    2   22 1
   6    3    4 ar
   7    3    9 1
   8    4    5 ar
   9    4   23 1
  10    5    6 ar
  11    5   10 1
  12    6   21 1
  13    7    8 1
  14    8    9 1
  15    8   13 2
  16   10   11 am
  17   10   14 2
  18   10   15 2
  19   11   12 1
  20   11   24 1
  21   12   16 1
  22   12   17 1
  23   12   25 1
  24   16   20 1
  25   16   26 1
  26   16   27 1
  27   17   18 1
  28   17   28 1
  29   17   29 1
  30   18   19 1
  31   18   30 1
  32   18   31 1
  33   19   20 1
  34   19   32 1
  35   19   33 1
  36   20   34 1
  37   20   35 1
  38   21   36 1
  39   21   37 1
  40   21   38 1

#	End of record

