#	Name: ASD05143265
#	Creating user name:	WinNT
#	Creation time:	15. 06. 2019 20:57

#	Modifying user name:	WinNT
#	Modification time:	15. 06. 2019 20:57

#	Program:	/corina/corina34_cracker 3.40 0067  02.08.2006

@<TRIPOS>MOLECULE
ASD05143265
  45   47    0    0    0
SMALL
NO_CHARGES


@<TRIPOS>ATOM
   1 C1             0.3278     1.2338     0.2619 C.2     
   2 N2             0.3294    -0.0325    -0.1048 N.2     
   3 S3            -1.3053    -0.4871    -0.1971 S.3     
   4 C4            -1.9094     1.0583     0.2650 C.2     
   5 N5            -0.8442     1.8040     0.4611 N.2     
   6 N6            -3.2324     1.4333     0.4050 N.pl3   
   7 C7            -3.5513     2.7070     0.8914 C.ar    
   8 C8            -4.8746     3.0322     1.1836 C.ar    
   9 C9            -5.1840     4.2935     1.6644 C.ar    
  10 C10           -4.1812     5.2271     1.8535 C.ar    
  11 C11           -2.8685     4.9054     1.5639 C.ar    
  12 C12           -2.5503     3.6466     1.0891 C.ar    
  13 C13            1.4238    -0.8197    -0.3596 C.ar    
  14 C14            1.6126    -2.0077     0.3487 C.ar    
  15 C15            2.3499    -0.4389    -1.3322 C.ar    
  16 C16            3.4480    -1.2348    -1.5841 C.ar    
  17 C17            3.6324    -2.4096    -0.8748 C.ar    
  18 C18            2.7147    -2.7952     0.0878 C.ar    
  19 C19            1.5917     1.9838     0.4486 C.ar    
  20 C20            1.6433     3.3491     0.1692 C.ar    
  21 C21            2.7330     1.3285     0.9100 C.ar    
  22 C22            3.9073     2.0325     1.0818 C.ar    
  23 C23            3.9537     3.3857     0.7980 C.ar    
  24 C24            2.8234     4.0423     0.3450 C.ar    
  25 Cl25           5.0162    -3.4066    -1.1984 Cl      
  26 O26           -5.8595     2.1134     0.9967 O.3     
  27 C27           -7.1924     2.5168     1.3174 C.3     
  28 H28           -3.9399     0.8142     0.1663 H       
  29 H29           -6.2087     4.5483     1.8913 H       
  30 H30           -4.4246     6.2104     2.2282 H       
  31 H31           -2.0889     5.6379     1.7129 H       
  32 H32           -1.5238     3.3979     0.8636 H       
  33 H33            0.8976    -2.3094     1.0997 H       
  34 H34            2.2067     0.4769    -1.8865 H       
  35 H35            4.1651    -0.9411    -2.3363 H       
  36 H36            2.8640    -3.7124     0.6380 H       
  37 H37            0.7616     3.8628    -0.1844 H       
  38 H38            2.6978     0.2723     1.1326 H       
  39 H39            4.7918     1.5261     1.4391 H       
  40 H40            4.8750     3.9325     0.9344 H       
  41 H41            2.8657     5.0988     0.1251 H       
  42 H42           -7.2450     2.7924     2.3707 H       
  43 H43           -7.4705     3.3733     0.7033 H       
  44 H44           -7.8783     1.6922     1.1229 H       
  45 Br45          10.0162    11.2104     7.3707 Br      
@<TRIPOS>BOND
   1    1    2 2
   2    1   19 1
   3    1    5 1
   4    2    3 1
   5    2   13 1
   6    3    4 1
   7    4    5 2
   8    4    6 1
   9    6    7 1
  10    6   28 1
  11    7    8 ar
  12    7   12 ar
  13    8    9 ar
  14    8   26 1
  15    9   10 ar
  16    9   29 1
  17   10   11 ar
  18   10   30 1
  19   11   12 ar
  20   11   31 1
  21   12   32 1
  22   13   14 ar
  23   13   15 ar
  24   14   18 ar
  25   14   33 1
  26   15   16 ar
  27   15   34 1
  28   16   17 ar
  29   16   35 1
  30   17   18 ar
  31   17   25 1
  32   18   36 1
  33   19   20 ar
  34   19   21 ar
  35   20   24 ar
  36   20   37 1
  37   21   22 ar
  38   21   38 1
  39   22   23 ar
  40   22   39 1
  41   23   24 ar
  42   23   40 1
  43   24   41 1
  44   26   27 1
  45   27   42 1
  46   27   43 1
  47   27   44 1

#	End of record

