#	Name: ASD00111057
#	Creating user name:	WinNT
#	Creation time:	15. 06. 2019 18:30

#	Modifying user name:	WinNT
#	Modification time:	15. 06. 2019 18:30

#	Program:	/corina/corina34_cracker 3.40 0067  02.08.2006

@<TRIPOS>MOLECULE
ASD00111057
  35   35    0    0    0
SMALL
NO_CHARGES


@<TRIPOS>ATOM
   1 C1             0.0847     1.5122     0.0322 C.2     
   2 C2             0.2911     0.0198     0.0683 C.3     
   3 C3             1.7624    -0.2866    -0.0432 C.ar    
   4 C4             2.3809    -0.2655    -1.2805 C.ar    
   5 C5             3.7311    -0.5459    -1.3858 C.ar    
   6 C6             4.4652    -0.8478    -0.2549 C.ar    
   7 C7             3.8471    -0.8695     0.9866 C.ar    
   8 C8             2.4935    -0.5827     1.0905 C.ar    
   9 O9             1.0415     2.2559     0.0008 O.2     
  10 N10           -1.1638     2.0199     0.0292 N.am    
  11 O11            4.5674    -1.1661     2.1004 O.3     
  12 C12            5.9570    -1.4455     1.9189 C.3     
  13 I13            1.2705     0.1911    -2.9973 I       
  14 C14           -2.2269     1.1941    -0.0358 C.2     
  15 O15           -2.0611     0.0041    -0.1971 O.2     
  16 C16           -3.6218     1.7501     0.0921 C.3     
  17 F17           -4.5441     0.6982     0.1005 F       
  18 F18           -3.7281     2.4730     1.2852 F       
  19 F19           -3.8881     2.5951    -0.9905 F       
  20 C20           -1.3652     3.4695     0.0966 C.3     
  21 C21           -1.4023     4.0369    -1.2990 C.2     
  22 C22           -2.4279     4.7531    -1.6878 C.2     
  23 H23           -0.0925    -0.3774     1.0081 H       
  24 H24           -0.2401    -0.4407    -0.7646 H       
  25 H25            4.2119    -0.5293    -2.3527 H       
  26 H26            5.5195    -1.0670    -0.3376 H       
  27 H27            2.0112    -0.5946     2.0568 H       
  28 H28            6.0716    -2.3050     1.2585 H       
  29 H29            6.4470    -0.5787     1.4755 H       
  30 H30            6.4124    -1.6659     2.8844 H       
  31 H31           -2.3080     3.6822     0.6005 H       
  32 H32           -0.5454     3.9248     0.6523 H       
  33 H33           -0.5833     3.8530    -1.9786 H       
  34 H34           -3.2468     4.9370    -1.0082 H       
  35 H35           -2.4544     5.1598    -2.6880 H       
@<TRIPOS>BOND
   1    1    2 1
   2    1    9 2
   3    1   10 am
   4    2    3 1
   5    2   23 1
   6    2   24 1
   7    3    4 ar
   8    3    8 ar
   9    4    5 ar
  10    4   13 1
  11    5    6 ar
  12    5   25 1
  13    6    7 ar
  14    6   26 1
  15    7    8 ar
  16    7   11 1
  17    8   27 1
  18   10   14 am
  19   10   20 1
  20   11   12 1
  21   12   28 1
  22   12   29 1
  23   12   30 1
  24   14   15 2
  25   14   16 1
  26   16   17 1
  27   16   18 1
  28   16   19 1
  29   20   21 1
  30   20   31 1
  31   20   32 1
  32   21   22 2
  33   21   33 1
  34   22   34 1
  35   22   35 1

#	End of record

