#	Name: ASD09116268
#	Creating user name:	WinNT
#	Creation time:	15. 06. 2019 21:21

#	Modifying user name:	WinNT
#	Modification time:	15. 06. 2019 21:21

#	Program:	/corina/corina34_cracker 3.40 0067  02.08.2006

@<TRIPOS>MOLECULE
ASD09116268
  71   77    0    0    0
SMALL
NO_CHARGES


@<TRIPOS>ATOM
   1 N1            -0.0578     1.4842     0.3732 N.pl3   
   2 N2            -0.0736     0.1275     0.7352 N.2     
   3 C3             1.2445     1.8507     0.3212 C.2     
   4 N4             1.9738     0.7989     0.6281 N.2     
   5 C5             1.1756    -0.2450     0.8789 C.2     
   6 N6             1.7236     3.1076     0.0019 N.pl3   
   7 C7             3.0943     3.3793     0.0961 C.ar    
   8 C8             3.6736     4.3241    -0.7400 C.ar    
   9 C9             5.0257     4.5928    -0.6477 C.ar    
  10 C10            5.8057     3.9188     0.2811 C.ar    
  11 C11            5.2262     2.9724     1.1196 C.ar    
  12 C12            3.8727     2.7075     1.0302 C.ar    
  13 C13           -1.1653     2.2931     0.1126 C.ar    
  14 N14           -1.0776     3.6058     0.2670 N.ar    
  15 N15           -2.0697     4.3939     0.0497 N.ar    
  16 C16           -3.2471     3.9351    -0.3432 C.ar    
  17 C17           -3.4271     2.5649    -0.5531 C.ar    
  18 C18           -2.3644     1.7187    -0.3167 C.ar    
  19 C19           -4.4069     4.8349    -0.5419 C.ar    
  20 C20           -5.6275     4.5025     0.0479 C.ar    
  21 C21           -5.7192     3.2749     0.9121 C.3     
  22 C22           -5.7750     2.0036     0.0694 C.3     
  23 C23           -4.7462     2.0557    -1.0569 C.3     
  24 C24           -4.2951     5.9921    -1.3047 C.ar    
  25 C25           -5.4015     6.7984    -1.4901 C.ar    
  26 C26           -6.6143     6.4545    -0.9211 C.ar    
  27 C27           -6.7277     5.3079    -0.1540 C.ar    
  28 N28            1.6031    -1.5234     1.2360 N.pl3   
  29 F29            5.9851     2.3155     2.0239 F       
  30 N30            7.1770     4.1913     0.3741 N.3     
  31 C31            7.5520     4.5626     1.7587 C.3     
  32 C32            8.6678     5.6037     1.6471 C.3     
  33 C33            8.8871     5.8358     0.1444 C.3     
  34 C34            7.5475     5.3548    -0.4731 C.3     
  35 C35            8.2869     6.9089     2.3550 C.3     
  36 C36            9.3858     7.1101     3.4241 C.3     
  37 N37           10.5521     6.3435     2.9126 N.3     
  38 C38            9.9563     5.1151     2.3209 C.3     
  39 C39           11.4794     6.0071     4.0012 C.3     
  40 H40            1.1105     3.8013    -0.2875 H       
  41 H41            3.0672     4.8490    -1.4631 H       
  42 H42            5.4758     5.3274    -1.2990 H       
  43 H43            3.4219     1.9728     1.6808 H       
  44 H44           -2.4579     0.6511    -0.4506 H       
  45 H45           -4.8471     3.2321     1.5646 H       
  46 H46           -6.6187     3.3364     1.5247 H       
  47 H47           -5.5682     1.1425     0.7048 H       
  48 H48           -6.7718     1.9009    -0.3596 H       
  49 H49           -5.1090     2.7172    -1.8435 H       
  50 H50           -4.6113     1.0543    -1.4657 H       
  51 H51           -3.3481     6.2594    -1.7498 H       
  52 H52           -5.3191     7.6992    -2.0802 H       
  53 H53           -7.4779     7.0843    -1.0762 H       
  54 H54           -7.6778     5.0449     0.2870 H       
  55 H55            2.5509    -1.7121     1.3199 H       
  56 H56            0.9527    -2.2240     1.4006 H       
  57 H57            6.6931     4.9903     2.2759 H       
  58 H58            7.9126     3.6853     2.2957 H       
  59 H59            9.0510     6.8932    -0.0635 H       
  60 H60            9.7195     5.2351    -0.2221 H       
  61 H61            7.6906     5.0461    -1.5087 H       
  62 H62            6.7905     6.1362    -0.4052 H       
  63 H63            8.2881     7.7387     1.6482 H       
  64 H64            7.3096     6.8132     2.8281 H       
  65 H65            9.6367     8.1668     3.5170 H       
  66 H66            9.0597     6.7102     4.3842 H       
  67 H67            9.7266     4.3894     3.1011 H       
  68 H68           10.6313     4.6817     1.5830 H       
  69 H69           10.9613     5.4031     4.7461 H       
  70 H70           12.3223     5.4446     3.5997 H       
  71 H71           11.8425     6.9239     4.4655 H       
@<TRIPOS>BOND
   1    1    2 1
   2    1    3 1
   3    1   13 1
   4    2    5 2
   5    3    4 2
   6    3    6 1
   7    4    5 1
   8    5   28 1
   9    6    7 1
  10    6   40 1
  11    7    8 ar
  12    7   12 ar
  13    8    9 ar
  14    8   41 1
  15    9   10 ar
  16    9   42 1
  17   10   11 ar
  18   10   30 1
  19   11   12 ar
  20   11   29 1
  21   12   43 1
  22   13   14 ar
  23   13   18 ar
  24   14   15 ar
  25   15   16 ar
  26   16   17 ar
  27   16   19 1
  28   17   18 ar
  29   17   23 1
  30   18   44 1
  31   19   20 ar
  32   19   24 ar
  33   20   21 1
  34   20   27 ar
  35   21   22 1
  36   21   45 1
  37   21   46 1
  38   22   23 1
  39   22   47 1
  40   22   48 1
  41   23   49 1
  42   23   50 1
  43   24   25 ar
  44   24   51 1
  45   25   26 ar
  46   25   52 1
  47   26   27 ar
  48   26   53 1
  49   27   54 1
  50   28   55 1
  51   28   56 1
  52   30   31 1
  53   30   34 1
  54   31   32 1
  55   31   57 1
  56   31   58 1
  57   32   33 1
  58   32   35 1
  59   32   38 1
  60   33   34 1
  61   33   59 1
  62   33   60 1
  63   34   61 1
  64   34   62 1
  65   35   36 1
  66   35   63 1
  67   35   64 1
  68   36   37 1
  69   36   65 1
  70   36   66 1
  71   37   38 1
  72   37   39 1
  73   38   67 1
  74   38   68 1
  75   39   69 1
  76   39   70 1
  77   39   71 1

#	End of record

