#	Name: ASD03332088
#	Creating user name:	WinNT
#	Creation time:	15. 06. 2019 20:40

#	Modifying user name:	WinNT
#	Modification time:	15. 06. 2019 20:40

#	Program:	/corina/corina34_cracker 3.40 0067  02.08.2006

@<TRIPOS>MOLECULE
ASD03332088
  67   70    0    0    0
SMALL
NO_CHARGES


@<TRIPOS>ATOM
   1 C1             0.1066     1.5965     0.1965 C.2     
   2 N2             0.2154     0.2650    -0.0223 N.pl3   
   3 C3             1.4974    -0.0970     0.2727 C.2     
   4 N4             2.1499     0.9673     0.6772 N.2     
   5 C5             1.3176     2.0308     0.6447 C.2     
   6 C6             1.6584     3.4129     1.0258 C.2     
   7 O7             0.8178     4.2888     0.9524 O.2     
   8 N8             2.9016     3.7063     1.4557 N.am    
   9 C9             3.2404     5.0803     1.8346 C.3     
  10 C10            3.6442     5.8685     0.5869 C.3     
  11 C11            4.8591     5.2048    -0.0646 C.3     
  12 C12            4.3879     5.0636     2.8114 C.2     
  13 C13            2.4793     5.8855    -0.4048 C.3     
  14 C14            3.9981     7.3035     0.9826 C.3     
  15 N15            4.4821     5.7617     3.9174 N.2     
  16 C16           -0.8660    -0.6135    -0.4768 C.3     
  17 C17           -1.5799     0.0409    -1.6636 C.3     
  18 C18           -2.6903     0.9557    -1.1565 C.3     
  19 N19           -2.3177     1.5791     0.1151 N.3     
  20 C20           -1.1276     2.4293    -0.0354 C.3     
  21 C21            2.0580    -1.4613     0.1565 C.ar    
  22 C22            3.4049    -1.6405    -0.1599 C.ar    
  23 C23            3.9217    -2.9153    -0.2669 C.ar    
  24 C24            3.1071    -4.0146    -0.0616 C.ar    
  25 C25            1.7706    -3.8435     0.2520 C.ar    
  26 C26            1.2433    -2.5738     0.3684 C.ar    
  27 C27            5.6668     5.4254     4.4580 C.2     
  28 N28            6.2223     4.5560     3.6678 N.2     
  29 O29            5.5012     4.3302     2.7189 O.3     
  30 C30            6.2442     5.9590     5.7436 C.3     
  31 C31           -3.4411     2.3408     0.6772 C.3     
  32 C32           -4.0088     3.2762    -0.3922 C.3     
  33 C33           -4.5323     1.3734     1.1399 C.3     
  34 H34            3.5720     3.0077     1.5142 H       
  35 H35            2.3749     5.5531     2.2987 H       
  36 H36            4.6070     4.1825    -0.3465 H       
  37 H37            5.1467     5.7664    -0.9535 H       
  38 H38            5.6890     5.1927     0.6419 H       
  39 H39            1.6138     6.3583     0.0594 H       
  40 H40            2.7669     6.4470    -1.2936 H       
  41 H41            2.2272     4.8632    -0.6867 H       
  42 H42            4.8280     7.2914     1.6891 H       
  43 H43            4.2857     7.8650     0.0938 H       
  44 H44            3.1326     7.7763     1.4468 H       
  45 H45           -0.4507    -1.5728    -0.7854 H       
  46 H46           -1.5761    -0.7673     0.3357 H       
  47 H47           -0.8632     0.6259    -2.2400 H       
  48 H48           -2.0098    -0.7329    -2.2995 H       
  49 H49           -2.8779     1.7345    -1.8956 H       
  50 H50           -3.5993     0.3709    -1.0156 H       
  51 H51           -1.1633     3.2386     0.6939 H       
  52 H52           -1.1022     2.8457    -1.0424 H       
  53 H53            4.0417    -0.7832    -0.3211 H       
  54 H54            4.9642    -3.0554    -0.5118 H       
  55 H55            3.5162    -5.0104    -0.1468 H       
  56 H56            1.1397    -4.7056     0.4107 H       
  57 H57            0.1998    -2.4415     0.6136 H       
  58 H58            5.9300     5.3260     6.5734 H       
  59 H59            7.3324     5.9610     5.6799 H       
  60 H60            5.8880     6.9761     5.9073 H       
  61 H61           -3.0927     2.9287     1.5263 H       
  62 H62           -4.3857     2.6865    -1.2278 H       
  63 H63           -4.8220     3.8639     0.0337 H       
  64 H64           -3.2232     3.9446    -0.7444 H       
  65 H65           -4.8807     0.7855     0.2908 H       
  66 H66           -4.1279     0.7070     1.9018 H       
  67 H67           -5.3659     1.9385     1.5570 H       
@<TRIPOS>BOND
   1    1    2 1
   2    1    5 2
   3    1   20 1
   4    2    3 1
   5    2   16 1
   6    3    4 2
   7    3   21 1
   8    4    5 1
   9    5    6 1
  10    6    7 2
  11    6    8 am
  12    8    9 1
  13    8   34 1
  14    9   10 1
  15    9   12 1
  16    9   35 1
  17   10   11 1
  18   10   13 1
  19   10   14 1
  20   11   36 1
  21   11   37 1
  22   11   38 1
  23   12   15 2
  24   12   29 1
  25   13   39 1
  26   13   40 1
  27   13   41 1
  28   14   42 1
  29   14   43 1
  30   14   44 1
  31   15   27 1
  32   16   17 1
  33   16   45 1
  34   16   46 1
  35   17   18 1
  36   17   47 1
  37   17   48 1
  38   18   19 1
  39   18   49 1
  40   18   50 1
  41   19   20 1
  42   19   31 1
  43   20   51 1
  44   20   52 1
  45   21   22 ar
  46   21   26 ar
  47   22   23 ar
  48   22   53 1
  49   23   24 ar
  50   23   54 1
  51   24   25 ar
  52   24   55 1
  53   25   26 ar
  54   25   56 1
  55   26   57 1
  56   27   28 2
  57   27   30 1
  58   28   29 1
  59   30   58 1
  60   30   59 1
  61   30   60 1
  62   31   32 1
  63   31   33 1
  64   31   61 1
  65   32   62 1
  66   32   63 1
  67   32   64 1
  68   33   65 1
  69   33   66 1
  70   33   67 1

#	End of record

