#	Name: ASD01180018
#	Creating user name:	WinNT
#	Creation time:	15. 06. 2019 19:06

#	Modifying user name:	WinNT
#	Modification time:	15. 06. 2019 19:06

#	Program:	/corina/corina34_cracker 3.40 0067  02.08.2006

@<TRIPOS>MOLECULE
ASD01180018
  31   32    0    0    0
SMALL
NO_CHARGES


@<TRIPOS>ATOM
   1 N1             0.0306     1.4050     0.0445 N.ar    
   2 C2            -0.0465     0.0880    -0.0461 C.ar    
   3 C3             1.1102    -0.7059    -0.1036 C.ar    
   4 N4             2.3076    -0.1687    -0.0695 N.ar    
   5 C5             2.4324     1.1592     0.0218 C.ar    
   6 C6             3.6887     1.7840     0.0624 C.ar    
   7 C7             3.7612     3.1411     0.1562 C.ar    
   8 C8             2.6138     3.9330     0.2135 C.ar    
   9 C9             1.3677     3.3865     0.1788 C.ar    
  10 C10            1.2267     1.9899     0.0820 C.ar    
  11 C11           -1.3769    -0.5615    -0.0871 C.2     
  12 O12           -1.8123    -0.9877    -1.1374 O.2     
  13 O13           -2.1038    -0.6793     1.0405 O.3     
  14 S14            0.9517    -2.4566    -0.2234 S.o2    
  15 O15            2.2169    -2.9523     0.1921 O.2     
  16 O16           -0.2283    -2.7527     0.5109 O.2     
  17 C17            0.6957    -2.7680    -1.9921 C.3     
  18 Cl18           2.7795     5.6570     0.3324 Cl      
  19 Cl19           5.3196     3.9042     0.2063 Cl      
  20 C20           -3.3985    -1.3267     0.9256 C.3     
  21 C21           -4.0717    -1.3680     2.2989 C.3     
  22 H22            4.5916     1.1929     0.0199 H       
  23 H23            0.4942     4.0198     0.2252 H       
  24 H24            1.5531    -2.3977    -2.5540 H       
  25 H25            0.5863    -3.8393    -2.1603 H       
  26 H26           -0.2062    -2.2540    -2.3247 H       
  27 H27           -4.0244    -0.7666     0.2308 H       
  28 H28           -3.2648    -2.3433     0.5558 H       
  29 H29           -5.0435    -1.8540     2.2127 H       
  30 H30           -3.4457    -1.9280     2.9937 H       
  31 H31           -4.2053    -0.3514     2.6688 H       
@<TRIPOS>BOND
   1    1    2 ar
   2    1   10 ar
   3    2    3 ar
   4    2   11 1
   5    3    4 ar
   6    3   14 1
   7    4    5 ar
   8    5    6 ar
   9    5   10 ar
  10    6    7 ar
  11    6   22 1
  12    7    8 ar
  13    7   19 1
  14    8    9 ar
  15    8   18 1
  16    9   10 ar
  17    9   23 1
  18   11   12 2
  19   11   13 1
  20   13   20 1
  21   14   15 2
  22   14   16 2
  23   14   17 1
  24   17   24 1
  25   17   25 1
  26   17   26 1
  27   20   21 1
  28   20   27 1
  29   20   28 1
  30   21   29 1
  31   21   30 1
  32   21   31 1

#	End of record

