#	Name: ASD01320145
#	Creating user name:	WinNT
#	Creation time:	15. 06. 2019 19:16

#	Modifying user name:	WinNT
#	Modification time:	15. 06. 2019 19:16

#	Program:	/corina/corina34_cracker 3.40 0067  02.08.2006

@<TRIPOS>MOLECULE
ASD01320145
  34   35    0    0    0
SMALL
NO_CHARGES


@<TRIPOS>ATOM
   1 C1            -0.0173     1.4248     0.0099 C.3     
   2 N2             1.9498     5.6572     3.1595 N.2     
   3 O3             0.0021    -0.0041     0.0020 O.3     
   4 C4             1.4181     1.9544    -0.0010 C.3     
   5 N5             1.6564     5.2614     1.8479 N.pl3   
   6 O6             2.0484     1.6242    -1.2441 O.3     
   7 C7             1.4095     3.4931     0.1235 C.3     
   8 N8             1.7163     3.9069     1.4950 N.2     
   9 C9             2.5486     3.9087    -0.8470 C.3     
  10 C10            2.4090     2.8248    -1.9455 C.3     
  11 N11            3.6835     2.6421    -2.6444 N.am    
  12 C12            4.2142     3.6639    -3.3404 C.2     
  13 O13            3.6295     4.7291    -3.3811 O.2     
  14 N14            5.3837     3.5237    -3.9919 N.am    
  15 C15            6.0448     2.3491    -3.9562 C.2     
  16 O16            7.1032     2.2214    -4.5450 O.2     
  17 C17            5.4975     1.2657    -3.2276 C.2     
  18 C18            6.2163    -0.0577    -3.1717 C.3     
  19 C19            4.3256     1.4356    -2.5787 C.2     
  20 H20           -0.5445     1.7859    -0.8732 H       
  21 H21           -0.5275     1.7763     0.9067 H       
  22 H22            1.9083     6.5950     3.4039 H       
  23 H23           -0.8759    -0.4094     0.0082 H       
  24 H24            1.9792     1.5183     0.8255 H       
  25 H25            1.4119     5.9252     1.1843 H       
  26 H26            0.4523     3.9031    -0.1986 H       
  27 H27            2.3743     4.9048    -1.2537 H       
  28 H28            3.5214     3.8503    -0.3589 H       
  29 H29            1.6255     3.1003    -2.6514 H       
  30 H30            5.7521     4.2705    -4.4892 H       
  31 H31            7.1385     0.0051    -3.7494 H       
  32 H32            6.4524    -0.2995    -2.1354 H       
  33 H33            5.5778    -0.8359    -3.5900 H       
  34 H34            3.8951     0.6219    -2.0140 H       
@<TRIPOS>BOND
   1    1    3 1
   2    1    4 1
   3    1   20 1
   4    1   21 1
   5    2    5 2
   6    2   22 1
   7    3   23 1
   8    4    6 1
   9    4    7 1
  10    4   24 1
  11    5    8 2
  12    5   25 1
  13    6   10 1
  14    7    8 1
  15    7    9 1
  16    7   26 1
  17    9   10 1
  18    9   27 1
  19    9   28 1
  20   10   11 1
  21   10   29 1
  22   11   12 am
  23   11   19 1
  24   12   13 2
  25   12   14 am
  26   14   15 am
  27   14   30 1
  28   15   16 2
  29   15   17 1
  30   17   18 1
  31   17   19 2
  32   18   31 1
  33   18   32 1
  34   18   33 1
  35   19   34 1

#	End of record

