#	Name: ASD01870670
#	Creating user name:	WinNT
#	Creation time:	15. 06. 2019 19:39

#	Modifying user name:	WinNT
#	Modification time:	15. 06. 2019 19:39

#	Program:	/corina/corina34_cracker 3.40 0067  02.08.2006

@<TRIPOS>MOLECULE
ASD01870670
  34   37    0    0    0
SMALL
NO_CHARGES


@<TRIPOS>ATOM
   1 C1            -0.0174     1.4474     0.0142 C.2     
   2 C2             0.0021    -0.0041    -0.0008 C.2     
   3 C3             1.2283    -0.5353    -0.0715 C.2     
   4 S4             2.4387     0.6593    -0.1246 S.3     
   5 C5             1.2693     1.9672    -0.0495 C.2     
   6 C6            -1.2300    -0.8268     0.0578 C.ar    
   7 C7            -1.4321    -1.8508    -0.8661 C.ar    
   8 C8            -2.5809    -2.6133    -0.8067 C.ar    
   9 C9            -3.5307    -2.3631     0.1673 C.ar    
  10 C10           -3.3357    -1.3479     1.0866 C.ar    
  11 C11           -2.1880    -0.5829     1.0407 C.ar    
  12 N12           -1.0680     2.3086     0.0838 N.2     
  13 C13            1.4388     3.3735    -0.0446 C.2     
  14 N14            0.3426     4.1567     0.0219 N.am    
  15 C15           -0.8948     3.5944     0.0865 C.2     
  16 C16            0.4784     5.5506     0.0290 C.ar    
  17 C17            0.0300     6.2988    -1.0519 C.ar    
  18 C18            0.1647     7.6732    -1.0434 C.ar    
  19 C19            0.7461     8.3061     0.0398 C.ar    
  20 C20            1.1946     7.5639     1.1196 C.ar    
  21 C21            1.0563     6.1873     1.1186 C.ar    
  22 O22            2.5532     3.8662    -0.0990 O.2     
  23 F23            1.7627     8.1848     2.1765 F       
  24 H24            1.4262    -1.5968    -0.0917 H       
  25 H25           -0.6914    -2.0469    -1.6272 H       
  26 H26           -2.7387    -3.4068    -1.5222 H       
  27 H27           -4.4282    -2.9623     0.2101 H       
  28 H28           -4.0810    -1.1565     1.8444 H       
  29 H29           -2.0344     0.2060     1.7620 H       
  30 H30           -1.7598     4.2386     0.1428 H       
  31 H31           -0.4237     5.8058    -1.8990 H       
  32 H32           -0.1841     8.2545    -1.8841 H       
  33 H33            0.8510     9.3810     0.0436 H       
  34 H34            1.4016     5.6085     1.9626 H       
@<TRIPOS>BOND
   1    1    2 1
   2    1    5 2
   3    1   12 1
   4    2    3 2
   5    2    6 1
   6    3    4 1
   7    3   24 1
   8    4    5 1
   9    5   13 1
  10    6    7 ar
  11    6   11 ar
  12    7    8 ar
  13    7   25 1
  14    8    9 ar
  15    8   26 1
  16    9   10 ar
  17    9   27 1
  18   10   11 ar
  19   10   28 1
  20   11   29 1
  21   12   15 2
  22   13   14 am
  23   13   22 2
  24   14   15 1
  25   14   16 1
  26   15   30 1
  27   16   17 ar
  28   16   21 ar
  29   17   18 ar
  30   17   31 1
  31   18   19 ar
  32   18   32 1
  33   19   20 ar
  34   19   33 1
  35   20   21 ar
  36   20   23 1
  37   21   34 1

#	End of record

