#	Name: ASD07930112
#	Creating user name:	WinNT
#	Creation time:	15. 06. 2019 21:11

#	Modifying user name:	WinNT
#	Modification time:	15. 06. 2019 21:11

#	Program:	/corina/corina34_cracker 3.40 0067  02.08.2006

@<TRIPOS>MOLECULE
ASD07930112
  59   62    0    0    0
SMALL
NO_CHARGES


@<TRIPOS>ATOM
   1 C1            -0.0180     1.4754     0.0102 C.2     
   2 C2             0.0021    -0.0041     0.0020 C.2     
   3 N3             1.1814     2.1509     0.0023 N.am    
   4 N4             1.1194    -0.6400     0.4288 N.am    
   5 C5             2.2493     0.1650     0.9143 C.3     
   6 C6             2.4261     1.3707    -0.0208 C.3     
   7 C7            -1.2008     2.1485     0.0195 C.2     
   8 C8            -1.2247     3.5486     0.0291 C.2     
   9 C9            -0.0458     4.2425     0.0303 C.2     
  10 C10            1.2139     3.4948     0.0143 C.2     
  11 O11           -0.9642    -0.6358    -0.3794 O.2     
  12 O12            2.2807     4.0852     0.0118 O.2     
  13 C13            0.4239     6.4402     1.0348 C.2     
  14 N14            0.2552     7.6848     0.6804 N.2     
  15 C15           -0.3161     7.7283    -0.5326 C.2     
  16 C16           -0.5113     6.4636    -0.9513 C.2     
  17 N17           -0.0431     5.6402     0.0404 N.pl3   
  18 C18           -0.6774     8.9771    -1.2948 C.3     
  19 C19            1.0276    -2.6010    -1.0298 C.3     
  20 C20            1.2002    -2.1026     0.4064 C.3     
  21 C21            0.0936    -2.6880     1.2859 C.3     
  22 O22           -0.2894    -2.2881    -1.4875 O.3     
  23 C23           -0.6085    -2.6653    -2.7541 C.ar    
  24 C24           -1.8702    -2.3930    -3.2625 C.ar    
  25 C25           -2.1929    -2.7764    -4.5497 C.ar    
  26 C26           -1.2578    -3.4326    -5.3324 C.ar    
  27 C27            0.0015    -3.7049    -4.8262 C.ar    
  28 C28            0.3289    -3.3175    -3.5410 C.ar    
  29 C29           -4.1194    -2.5710    -2.2336 C.3     
  30 C30           -2.8884    -1.6797    -2.4107 C.3     
  31 C31           -3.2987    -0.3732    -3.0930 C.3     
  32 F32           -3.7442    -3.7657    -1.6097 F       
  33 F33           -5.0646    -1.9088    -1.4428 F       
  34 F34           -4.6748    -2.8534    -3.4861 F       
  35 F35           -1.5750    -3.8078    -6.5908 F       
  36 H36            2.0426     0.5136     1.9261 H       
  37 H37            3.1572    -0.4381     0.9099 H       
  38 H38            2.6247     1.0242    -1.0350 H       
  39 H39            3.2543     1.9881     0.3270 H       
  40 H40           -2.1297     1.5976     0.0190 H       
  41 H41           -2.1668     4.0767     0.0353 H       
  42 H42            0.8650     6.1025     1.9610 H       
  43 H43           -0.9521     6.1566    -1.8883 H       
  44 H44            0.1651     9.2797    -1.9167 H       
  45 H45           -1.5430     8.7793    -1.9270 H       
  46 H46           -0.9156     9.7756    -0.5921 H       
  47 H47            1.7609    -2.1153    -1.6736 H       
  48 H48            1.1759    -3.6804    -1.0601 H       
  49 H49            2.1717    -2.4186     0.7864 H       
  50 H50            0.2165    -2.3329     2.3091 H       
  51 H51           -0.8779    -2.3720     0.9059 H       
  52 H52            0.1537    -3.7762     1.2692 H       
  53 H53           -3.1751    -2.5645    -4.9458 H       
  54 H54            0.7299    -4.2168    -5.4377 H       
  55 H55            1.3129    -3.5264    -3.1478 H       
  56 H56           -2.4557    -1.4597    -1.4348 H       
  57 H57           -4.0352     0.1427    -2.4769 H       
  58 H58           -2.4218     0.2618    -3.2192 H       
  59 H59           -3.7315    -0.5932    -4.0689 H       
@<TRIPOS>BOND
   1    1    2 1
   2    1    3 1
   3    1    7 2
   4    2    4 am
   5    2   11 2
   6    3    6 1
   7    3   10 am
   8    4    5 1
   9    4   20 1
  10    5    6 1
  11    5   36 1
  12    5   37 1
  13    6   38 1
  14    6   39 1
  15    7    8 1
  16    7   40 1
  17    8    9 2
  18    8   41 1
  19    9   10 1
  20    9   17 1
  21   10   12 2
  22   13   14 2
  23   13   17 1
  24   13   42 1
  25   14   15 1
  26   15   16 2
  27   15   18 1
  28   16   17 1
  29   16   43 1
  30   18   44 1
  31   18   45 1
  32   18   46 1
  33   19   20 1
  34   19   22 1
  35   19   47 1
  36   19   48 1
  37   20   21 1
  38   20   49 1
  39   21   50 1
  40   21   51 1
  41   21   52 1
  42   22   23 1
  43   23   24 ar
  44   23   28 ar
  45   24   25 ar
  46   24   30 1
  47   25   26 ar
  48   25   53 1
  49   26   27 ar
  50   26   35 1
  51   27   28 ar
  52   27   54 1
  53   28   55 1
  54   29   30 1
  55   29   32 1
  56   29   33 1
  57   29   34 1
  58   30   31 1
  59   30   56 1
  60   31   57 1
  61   31   58 1
  62   31   59 1

#	End of record

