#	Name: ASD01910003
#	Creating user name:	WinNT
#	Creation time:	15. 06. 2019 19:55

#	Modifying user name:	WinNT
#	Modification time:	15. 06. 2019 19:55

#	Program:	/corina/corina34_cracker 3.40 0067  02.08.2006

@<TRIPOS>MOLECULE
ASD01910003
  14   14    0    0    0
SMALL
NO_CHARGES


@<TRIPOS>ATOM
   1 C1            -0.0158     1.3136     0.0093 C.ar    
   2 N2             0.0021    -0.0041     0.0020 N.ar    
   3 C3             1.1485    -0.6703    -0.0125 C.ar    
   4 C4             2.3388     0.0364    -0.0200 C.ar    
   5 C5             2.2816     1.4280    -0.0120 C.ar    
   6 N6             1.0941     2.0237     0.0025 N.ar    
   7 O7             3.4200     2.1633    -0.0189 O.3     
   8 C8             3.2742     3.5848    -0.0099 C.3     
   9 Cl9            1.1566    -2.4062    -0.0213 Cl      
  10 H10           -0.9666     1.8258     0.0165 H       
  11 H11            3.2881    -0.4785    -0.0315 H       
  12 H12            4.2594     4.0512    -0.0168 H       
  13 H13            2.7175     3.8986    -0.8929 H       
  14 H14            2.7345     3.8890     0.8869 H       
@<TRIPOS>BOND
   1    1    2 ar
   2    1    6 ar
   3    1   10 1
   4    2    3 ar
   5    3    4 ar
   6    3    9 1
   7    4    5 ar
   8    4   11 1
   9    5    6 ar
  10    5    7 1
  11    7    8 1
  12    8   12 1
  13    8   13 1
  14    8   14 1

#	End of record

