#	Name: ASD04882192
#	Creating user name:	WinNT
#	Creation time:	15. 06. 2019 20:54

#	Modifying user name:	WinNT
#	Modification time:	15. 06. 2019 20:54

#	Program:	/corina/corina34_cracker 3.40 0067  02.08.2006

@<TRIPOS>MOLECULE
ASD04882192
  85   90    0    0    0
SMALL
NO_CHARGES


@<TRIPOS>ATOM
   1 C1             0.1258     1.4840    -0.4332 C.2     
   2 C2             0.1460     0.0187    -0.4838 C.2     
   3 N3             1.1860    -0.6594     0.0406 N.am    
   4 C4             1.1515    -2.0587     0.0999 C.ar    
   5 C5             2.3302    -2.7944    -0.0510 C.ar    
   6 C6             2.2974    -4.1830     0.0076 C.ar    
   7 C7             1.1041    -4.8386     0.2150 C.ar    
   8 C8            -0.0782    -4.1089     0.3672 C.ar    
   9 C9            -0.0473    -2.7126     0.3134 C.ar    
  10 N10            3.5390    -2.1357    -0.2608 N.3     
  11 C11            3.5457    -1.4484    -1.5598 C.3     
  12 C12            4.6713    -3.0665    -0.1549 C.3     
  13 C13            5.9817    -2.2915    -0.3123 C.3     
  14 N14            5.9884    -1.6042    -1.6112 N.3     
  15 C15            4.8561    -0.6735    -1.7171 C.3     
  16 C16            7.2008    -0.9435    -1.8217 C.ar    
  17 C17            7.9953    -1.2770    -2.9110 C.ar    
  18 C18            7.6121     0.0528    -0.9450 C.ar    
  19 C19            8.8114     0.7039    -1.1560 C.ar    
  20 C20            9.6026     0.3657    -2.2388 C.ar    
  21 C21            9.1937    -0.6217    -3.1162 C.ar    
  22 C22           -1.3564    -4.8114     0.5887 C.2     
  23 N23           -1.3846    -6.1578     0.6445 N.am    
  24 O24           -2.3846    -4.1758     0.7210 O.2     
  25 O25           -0.7765    -0.5852    -0.9993 O.2     
  26 C26            7.5505    -2.3530    -3.8678 C.3     
  27 O27            1.0791     2.2718     0.1059 O.3     
  28 C28            0.7234     3.5560    -0.0292 C.2     
  29 C29           -0.4701     3.6125    -0.6605 C.2     
  30 C30           -0.8584     2.2905    -0.9287 C.2     
  31 C31            1.5221     4.7426     0.4454 C.3     
  32 C32           -2.6539    -6.8554     0.8645 C.3     
  33 C33           -2.5662    -8.2712     0.2880 C.3     
  34 C34           -2.9369    -6.9412     2.3669 C.3     
  35 C35           -4.2325    -7.7237     2.5931 C.3     
  36 N36           -4.0977    -9.0709     2.0245 N.3     
  37 C37           -3.8726    -9.0152     0.5744 C.3     
  38 C38           -5.2699    -9.8968     2.3438 C.3     
  39 C39           -5.2149   -11.1758     1.5488 C.ar    
  40 C40           -4.5788   -12.2869     2.0702 C.ar    
  41 C41           -4.5283   -13.4601     1.3409 C.ar    
  42 C42           -5.1142   -13.5224     0.0905 C.ar    
  43 C43           -5.7511   -12.4117    -0.4305 C.ar    
  44 C44           -5.8054   -11.2397     0.3006 C.ar    
  45 H45            1.9584    -0.1786     0.3769 H       
  46 H46            3.2097    -4.7489    -0.1100 H       
  47 H47            1.0819    -5.9174     0.2597 H       
  48 H48           -0.9593    -2.1461     0.4310 H       
  49 H49            3.4593    -2.1831    -2.3603 H       
  50 H50            2.7054    -0.7558    -1.6091 H       
  51 H51            4.6517    -3.5535     0.8200 H       
  52 H52            4.5977    -3.8195    -0.9395 H       
  53 H53            6.0681    -1.5569     0.4883 H       
  54 H54            6.8219    -2.9841    -0.2630 H       
  55 H55            4.8757    -0.1864    -2.6920 H       
  56 H56            4.9297     0.0796    -0.9325 H       
  57 H57            6.9944     0.3178    -0.0997 H       
  58 H58            9.1317     1.4784    -0.4749 H       
  59 H59           10.5397     0.8770    -2.4019 H       
  60 H60            9.8139    -0.8834    -3.9607 H       
  61 H61           -0.5644    -6.6648     0.5390 H       
  62 H62            6.9594    -1.9065    -4.6674 H       
  63 H63            8.4251    -2.8448    -4.2936 H       
  64 H64            6.9452    -3.0860    -3.3344 H       
  65 H65           -1.0196     4.5067    -0.9148 H       
  66 H66           -1.7637     1.9726    -1.4245 H       
  67 H67            2.4408     4.3962     0.9188 H       
  68 H68            1.7689     5.3781    -0.4051 H       
  69 H69            0.9344     5.3116     1.1657 H       
  70 H70           -3.4591    -6.3106     0.3717 H       
  71 H71           -2.4073    -8.2163    -0.7890 H       
  72 H72           -1.7355    -8.8025     0.7524 H       
  73 H73           -2.1120    -7.4516     2.8640 H       
  74 H74           -3.0428    -5.9361     2.7752 H       
  75 H75           -4.4293    -7.7989     3.6625 H       
  76 H76           -5.0593    -7.2055     2.1073 H       
  77 H77           -4.7011    -8.4909     0.0981 H       
  78 H78           -3.8080   -10.0283     0.1777 H       
  79 H79           -5.2705   -10.1304     3.4085 H       
  80 H80           -6.1788    -9.3507     2.0912 H       
  81 H81           -4.1209   -12.2382     3.0471 H       
  82 H82           -4.0307   -14.3279     1.7480 H       
  83 H83           -5.0742   -14.4389    -0.4796 H       
  84 H84           -6.2087   -12.4603    -1.4076 H       
  85 H85           -6.3030   -10.3719    -0.1064 H       
@<TRIPOS>BOND
   1    1    2 1
   2    1   27 1
   3    1   30 2
   4    2    3 am
   5    2   25 2
   6    3    4 1
   7    3   45 1
   8    4    5 ar
   9    4    9 ar
  10    5    6 ar
  11    5   10 1
  12    6    7 ar
  13    6   46 1
  14    7    8 ar
  15    7   47 1
  16    8    9 ar
  17    8   22 1
  18    9   48 1
  19   10   11 1
  20   10   12 1
  21   11   15 1
  22   11   49 1
  23   11   50 1
  24   12   13 1
  25   12   51 1
  26   12   52 1
  27   13   14 1
  28   13   53 1
  29   13   54 1
  30   14   15 1
  31   14   16 1
  32   15   55 1
  33   15   56 1
  34   16   17 ar
  35   16   18 ar
  36   17   26 1
  37   17   21 ar
  38   18   19 ar
  39   18   57 1
  40   19   20 ar
  41   19   58 1
  42   20   21 ar
  43   20   59 1
  44   21   60 1
  45   22   23 am
  46   22   24 2
  47   23   32 1
  48   23   61 1
  49   26   62 1
  50   26   63 1
  51   26   64 1
  52   27   28 1
  53   28   29 2
  54   28   31 1
  55   29   30 1
  56   29   65 1
  57   30   66 1
  58   31   67 1
  59   31   68 1
  60   31   69 1
  61   32   33 1
  62   32   34 1
  63   32   70 1
  64   33   37 1
  65   33   71 1
  66   33   72 1
  67   34   35 1
  68   34   73 1
  69   34   74 1
  70   35   36 1
  71   35   75 1
  72   35   76 1
  73   36   37 1
  74   36   38 1
  75   37   77 1
  76   37   78 1
  77   38   39 1
  78   38   79 1
  79   38   80 1
  80   39   40 ar
  81   39   44 ar
  82   40   41 ar
  83   40   81 1
  84   41   42 ar
  85   41   82 1
  86   42   43 ar
  87   42   83 1
  88   43   44 ar
  89   43   84 1
  90   44   85 1

#	End of record

