#	Name: ASD03491009
#	Creating user name:	WinNT
#	Creation time:	15. 06. 2019 20:42

#	Modifying user name:	WinNT
#	Modification time:	15. 06. 2019 20:42

#	Program:	/corina/corina34_cracker 3.40 0067  02.08.2006

@<TRIPOS>MOLECULE
ASD03491009
  80   83    0    0    0
SMALL
NO_CHARGES


@<TRIPOS>ATOM
   1 C1             0.2115     1.4860    -0.3740 C.ar    
   2 C2             0.1887     0.1909    -0.8730 C.ar    
   3 C3             1.3620    -0.5558    -0.9177 C.ar    
   4 C4             2.5525     0.0001    -0.4617 C.ar    
   5 C5             2.5651     1.2970     0.0359 C.ar    
   6 C6             1.3975     2.0343     0.0782 C.ar    
   7 C7             1.4166     3.4408     0.6189 C.3     
   8 N8             3.7362    -0.7463    -0.5036 N.am    
   9 C9             4.9139    -0.1300    -0.7266 C.2     
  10 O10            4.9395     1.0585    -0.9817 O.2     
  11 C11            8.5804     1.5734    -1.3750 C.ar    
  12 C12            9.1388     1.5783    -2.6695 C.ar    
  13 C13           10.4420     2.0986    -2.8639 C.ar    
  14 C14           11.1591     2.6026    -1.7603 C.ar    
  15 C15           10.5867     2.5839    -0.5091 C.ar    
  16 C16            9.3043     2.0778    -0.3184 C.ar    
  17 C17            8.4264     1.0761    -3.7707 C.ar    
  18 C18            8.9954     1.0955    -5.0073 C.ar    
  19 C19           10.2773     1.6073    -5.1987 C.ar    
  20 C20           10.9967     2.1023    -4.1544 C.ar    
  21 O21           12.4104     3.1045    -1.9310 O.3     
  22 C22           13.0761     3.5975    -0.7666 C.3     
  23 C23           14.4620     4.1178    -1.1533 C.3     
  24 N24           14.3188     5.2798    -2.0405 N.3     
  25 C25           15.6113     5.9505    -2.2429 C.3     
  26 C26           15.4279     7.1164    -3.2180 C.3     
  27 O27           14.4305     8.0055    -2.7081 O.3     
  28 C28           13.1588     7.3854    -2.4996 C.3     
  29 C29           13.3192     6.2222    -1.5171 C.3     
  30 C30            2.8397     3.8028     1.0486 C.3     
  31 C31            0.9495     4.4114    -0.4677 C.3     
  32 C32            0.4799     3.5363     1.8249 C.3     
  33 O33            1.3445    -1.8261    -1.4056 O.3     
  34 C34            1.5752    -1.9861    -2.8068 C.3     
  35 C35            6.1715    -0.8973    -0.6613 C.2     
  36 N36            7.3022    -0.3056    -0.8754 N.2     
  37 O37            7.3319     1.0785    -1.1724 O.3     
  38 N38           -1.0127    -0.3632    -1.3300 N.am    
  39 S39           -2.1395     0.5986    -2.0700 S.o2    
  40 O40           -3.1540    -0.3057    -2.4850 O.2     
  41 O41           -2.4111     1.6171    -1.1170 O.2     
  42 C42           -1.2733     1.2868    -3.5076 C.3     
  43 H43           -0.6978     2.0679    -0.3430 H       
  44 H44            3.4890     1.7295     0.3906 H       
  45 H45            3.7088    -1.7070    -0.3722 H       
  46 H46           11.1383     2.9703     0.3352 H       
  47 H47            8.8750     2.0730     0.6726 H       
  48 H48            7.4321     0.6761    -3.6371 H       
  49 H49            8.4454     0.7083    -5.8523 H       
  50 H50           10.7062     1.6114    -6.1898 H       
  51 H51           11.9892     2.4958    -4.3174 H       
  52 H52           12.4924     4.4081    -0.3303 H       
  53 H53           13.1801     2.7924    -0.0393 H       
  54 H54           15.0036     4.4116    -0.2542 H       
  55 H55           15.0139     3.3323    -1.6696 H       
  56 H56           15.9786     6.3284    -1.2887 H       
  57 H57           16.3290     5.2410    -2.6547 H       
  58 H58           16.3712     7.6516    -3.3270 H       
  59 H59           15.1120     6.7331    -4.1883 H       
  60 H60           12.4610     8.1151    -2.0889 H       
  61 H61           12.7769     7.0099    -3.4490 H       
  62 H62           12.3637     5.7110    -1.3992 H       
  63 H63           13.6498     6.6045    -0.5514 H       
  64 H64            3.5070     3.7347     0.1894 H       
  65 H65            2.8535     4.8201     1.4397 H       
  66 H66            3.1725     3.1113     1.8227 H       
  67 H67           -0.0644     4.1536    -0.7738 H       
  68 H68            0.9633     5.4287    -0.0766 H       
  69 H69            1.6168     4.3434    -1.3269 H       
  70 H70            0.8127     2.8449     2.5991 H       
  71 H71            0.4937     4.5536     2.2161 H       
  72 H72           -0.5339     3.2785     1.5189 H       
  73 H73            1.5345    -3.0447    -3.0632 H       
  74 H74            0.8094    -1.4474    -3.3649 H       
  75 H75            2.5576    -1.5882    -3.0610 H       
  76 H76            6.1489    -1.9530    -0.4347 H       
  77 H77           -1.1853    -1.3106    -1.2133 H       
  78 H78           -0.9427     0.4749    -4.1555 H       
  79 H79           -1.9483     1.9405    -4.0599 H       
  80 H80           -0.4082     1.8583    -3.1712 H       
@<TRIPOS>BOND
   1    1    2 ar
   2    1    6 ar
   3    1   43 1
   4    2    3 ar
   5    2   38 1
   6    3    4 ar
   7    3   33 1
   8    4    5 ar
   9    4    8 1
  10    5    6 ar
  11    5   44 1
  12    6    7 1
  13    7   30 1
  14    7   31 1
  15    7   32 1
  16    8    9 am
  17    8   45 1
  18    9   10 2
  19    9   35 1
  20   11   12 ar
  21   11   37 1
  22   11   16 ar
  23   12   13 ar
  24   12   17 ar
  25   13   14 ar
  26   13   20 ar
  27   14   15 ar
  28   14   21 1
  29   15   16 ar
  30   15   46 1
  31   16   47 1
  32   17   18 ar
  33   17   48 1
  34   18   19 ar
  35   18   49 1
  36   19   20 ar
  37   19   50 1
  38   20   51 1
  39   21   22 1
  40   22   23 1
  41   22   52 1
  42   22   53 1
  43   23   24 1
  44   23   54 1
  45   23   55 1
  46   24   25 1
  47   24   29 1
  48   25   26 1
  49   25   56 1
  50   25   57 1
  51   26   27 1
  52   26   58 1
  53   26   59 1
  54   27   28 1
  55   28   29 1
  56   28   60 1
  57   28   61 1
  58   29   62 1
  59   29   63 1
  60   30   64 1
  61   30   65 1
  62   30   66 1
  63   31   67 1
  64   31   68 1
  65   31   69 1
  66   32   70 1
  67   32   71 1
  68   32   72 1
  69   33   34 1
  70   34   73 1
  71   34   74 1
  72   34   75 1
  73   35   36 2
  74   35   76 1
  75   36   37 1
  76   38   39 am
  77   38   77 1
  78   39   40 2
  79   39   41 2
  80   39   42 1
  81   42   78 1
  82   42   79 1
  83   42   80 1

#	End of record

