#	Name: ASD01870183
#	Creating user name:	WinNT
#	Creation time:	15. 06. 2019 19:38

#	Modifying user name:	WinNT
#	Modification time:	15. 06. 2019 19:38

#	Program:	/corina/corina34_cracker 3.40 0067  02.08.2006

@<TRIPOS>MOLECULE
ASD01870183
  58   62    0    0    0
SMALL
NO_CHARGES


@<TRIPOS>ATOM
   1 C1             0.9601     0.6063     0.6041 C.ar    
   2 C2             1.3710    -0.7208     0.7165 C.ar    
   3 C3             2.6984    -1.0325     0.6354 C.ar    
   4 C4             3.6170     0.0154     0.4381 C.ar    
   5 C5             3.1309     1.3436     0.3322 C.ar    
   6 N6             1.8177     1.5798     0.4205 N.ar    
   7 C7             4.9973    -0.2320     0.3457 C.ar    
   8 C8             5.8638     0.7955     0.1556 C.ar    
   9 C9             5.3994     2.1205     0.0481 C.ar    
  10 C10            4.0433     2.3881     0.1357 C.ar    
  11 C11            6.1120     3.3985    -0.1566 C.2     
  12 N12            5.2380     4.4188    -0.1945 N.am    
  13 C13            3.8847     3.8800    -0.0169 C.3     
  14 C14            5.5791     5.8313    -0.3812 C.3     
  15 C15            6.4101     5.9911    -1.6558 C.3     
  16 C16            6.7663     7.4663    -1.8508 C.3     
  17 C17            7.5755     7.9587    -0.6493 C.3     
  18 C18            6.7444     7.7988     0.6253 C.3     
  19 C19            6.3882     6.3237     0.8203 C.3     
  20 C20            5.5171    -1.6421     0.4584 C.3     
  21 C21            5.4526    -2.3106    -0.8907 C.ar    
  22 C22            6.5272    -2.2342    -1.7638 C.ar    
  23 C23            6.4240    -2.8641    -2.9942 C.ar    
  24 C24            5.2603    -3.5433    -3.3081 C.ar    
  25 N25            4.2575    -3.5948    -2.4516 N.ar    
  26 C26            4.3241    -3.0118    -1.2705 C.ar    
  27 O27            7.3166     3.5110    -0.2740 O.2     
  28 Cl28           5.1173    -4.3362    -4.8458 Cl      
  29 O29            5.6544     5.5312    -2.7781 O.3     
  30 C30            3.0277     4.1951    -1.2445 C.3     
  31 C31            3.5802     3.4454    -2.4584 C.3     
  32 O32            2.8597     3.8371    -3.6287 O.3     
  33 H33           -0.0930     0.8378     0.6657 H       
  34 H34            0.6406    -1.5018     0.8679 H       
  35 H35            3.0341    -2.0554     0.7207 H       
  36 H36            6.9226     0.5943     0.0864 H       
  37 H37            3.4278     4.3019     0.8782 H       
  38 H38            4.6643     6.4175    -0.4680 H       
  39 H39            7.3249     5.4049    -1.5690 H       
  40 H40            7.3584     7.5801    -2.7589 H       
  41 H41            5.8515     8.0525    -1.9376 H       
  42 H42            8.4903     7.3724    -0.5625 H       
  43 H43            7.8292     9.0096    -0.7882 H       
  44 H44            7.3209     8.1496     1.4813 H       
  45 H45            5.8296     8.3851     0.5385 H       
  46 H46            5.7962     6.2098     1.7284 H       
  47 H47            7.3031     5.7374     0.9071 H       
  48 H48            6.5504    -1.6218     0.8048 H       
  49 H49            4.9064    -2.1987     1.1692 H       
  50 H50            7.4234    -1.6964    -1.4917 H       
  51 H51            7.2414    -2.8249    -3.6990 H       
  52 H52            3.4833    -3.0757    -0.5957 H       
  53 H53            6.1205     5.6030    -3.6222 H       
  54 H54            2.0001     3.8814    -1.0605 H       
  55 H55            3.0510     5.2675    -1.4383 H       
  56 H56            4.6359     3.6856    -2.5842 H       
  57 H57            3.4676     2.3721    -2.3047 H       
  58 H58            3.1573     3.4002    -4.4384 H       
@<TRIPOS>BOND
   1    1    2 ar
   2    1    6 ar
   3    1   33 1
   4    2    3 ar
   5    2   34 1
   6    3    4 ar
   7    3   35 1
   8    4    5 ar
   9    4    7 ar
  10    5    6 ar
  11    5   10 ar
  12    7    8 ar
  13    7   20 1
  14    8    9 ar
  15    8   36 1
  16    9   10 ar
  17    9   11 1
  18   10   13 1
  19   11   12 am
  20   11   27 2
  21   12   13 1
  22   12   14 1
  23   13   30 1
  24   13   37 1
  25   14   15 1
  26   14   19 1
  27   14   38 1
  28   15   16 1
  29   15   29 1
  30   15   39 1
  31   16   17 1
  32   16   40 1
  33   16   41 1
  34   17   18 1
  35   17   42 1
  36   17   43 1
  37   18   19 1
  38   18   44 1
  39   18   45 1
  40   19   46 1
  41   19   47 1
  42   20   21 1
  43   20   48 1
  44   20   49 1
  45   21   22 ar
  46   21   26 ar
  47   22   23 ar
  48   22   50 1
  49   23   24 ar
  50   23   51 1
  51   24   25 ar
  52   24   28 1
  53   25   26 ar
  54   26   52 1
  55   29   53 1
  56   30   31 1
  57   30   54 1
  58   30   55 1
  59   31   32 1
  60   31   56 1
  61   31   57 1
  62   32   58 1

#	End of record

