#	Name: ASD01810050
#	Creating user name:	WinNT
#	Creation time:	15. 06. 2019 19:23

#	Modifying user name:	WinNT
#	Modification time:	15. 06. 2019 19:23

#	Program:	/corina/corina34_cracker 3.40 0067  02.08.2006

@<TRIPOS>MOLECULE
ASD01810050
  55   58    0    0    0
SMALL
NO_CHARGES


@<TRIPOS>ATOM
   1 C1            -0.0167     1.3798     0.0096 C.ar    
   2 C2             0.0021    -0.0041     0.0020 C.ar    
   3 C3             1.2044    -0.6844    -0.0132 C.ar    
   4 C4             2.3969     0.0223    -0.0208 C.ar    
   5 C5             2.3780     1.4188    -0.0131 C.ar    
   6 C6             1.1667     2.0926     0.0022 C.ar    
   7 N7             3.7356    -0.3620    -0.0357 N.am    
   8 C8             4.4959     0.7492    -0.0370 C.2     
   9 N9             3.7058     1.8393    -0.0236 N.am    
  10 C10            4.1645     3.2306    -0.0215 C.3     
  11 C11            5.0222     3.4847     1.2212 C.3     
  12 C12            5.5484     4.9214     1.1869 C.3     
  13 N13            6.3456     5.1231    -0.0298 N.3     
  14 C14            5.5309     4.9308    -1.2363 C.3     
  15 C15            5.0043     3.4944    -1.2743 C.3     
  16 O16            5.7126     0.7658    -0.0490 O.2     
  17 C17            6.9811     6.4475    -0.0292 C.3     
  18 C18            7.8995     6.5729    -1.2470 C.3     
  19 C19            8.5868     7.9418    -1.2244 C.3     
  20 N20            7.5575     8.9863    -1.1348 N.am    
  21 C21            6.5665     8.9107    -0.0527 C.3     
  22 C22            5.9018     7.5309    -0.0884 C.3     
  23 C23            7.5232     9.9950    -2.0280 C.2     
  24 O24            6.5743    10.9455    -1.9340 O.3     
  25 C25            6.5981    12.0016    -2.9301 C.3     
  26 C26            5.4534    12.9809    -2.6627 C.3     
  27 O27            8.3486    10.0466    -2.9182 O.2     
  28 H28           -0.9605     1.9046     0.0170 H       
  29 H29           -0.9271    -0.5545     0.0083 H       
  30 H30            1.2151    -1.7643    -0.0187 H       
  31 H31            1.1480     3.1724     0.0078 H       
  32 H32            4.0642    -1.2746    -0.0433 H       
  33 H33            3.3029     3.8982    -0.0121 H       
  34 H34            4.4177     3.3399     2.1165 H       
  35 H35            5.8619     2.7898     1.2321 H       
  36 H36            4.7083     5.6159     1.1899 H       
  37 H37            6.1712     5.1011     2.0631 H       
  38 H38            4.6910     5.6253    -1.2219 H       
  39 H39            6.1411     5.1174    -2.1201 H       
  40 H40            5.8437     2.7997    -1.3027 H       
  41 H41            4.3869     3.3566    -2.1620 H       
  42 H42            7.5673     6.5686     0.8817 H       
  43 H43            8.6537     5.7865    -1.2163 H       
  44 H44            7.3099     6.4768    -2.1587 H       
  45 H45            9.2475     8.0047    -0.3597 H       
  46 H46            9.1646     8.0756    -2.1389 H       
  47 H47            7.0625     9.0526     0.9075 H       
  48 H48            5.8113     9.6838    -0.1940 H       
  49 H49            5.3310     7.4258    -1.0110 H       
  50 H50            5.2342     7.4265     0.7669 H       
  51 H51            7.5494    12.5310    -2.8757 H       
  52 H52            6.4803    11.5674    -3.9229 H       
  53 H53            5.4713    13.7737    -3.4105 H       
  54 H54            4.5022    12.4515    -2.7171 H       
  55 H55            5.5713    13.4152    -1.6699 H       
@<TRIPOS>BOND
   1    1    2 ar
   2    1    6 ar
   3    1   28 1
   4    2    3 ar
   5    2   29 1
   6    3    4 ar
   7    3   30 1
   8    4    5 ar
   9    4    7 1
  10    5    6 ar
  11    5    9 1
  12    6   31 1
  13    7    8 am
  14    7   32 1
  15    8    9 am
  16    8   16 2
  17    9   10 1
  18   10   11 1
  19   10   15 1
  20   10   33 1
  21   11   12 1
  22   11   34 1
  23   11   35 1
  24   12   13 1
  25   12   36 1
  26   12   37 1
  27   13   14 1
  28   13   17 1
  29   14   15 1
  30   14   38 1
  31   14   39 1
  32   15   40 1
  33   15   41 1
  34   17   18 1
  35   17   22 1
  36   17   42 1
  37   18   19 1
  38   18   43 1
  39   18   44 1
  40   19   20 1
  41   19   45 1
  42   19   46 1
  43   20   21 1
  44   20   23 am
  45   21   22 1
  46   21   47 1
  47   21   48 1
  48   22   49 1
  49   22   50 1
  50   23   24 1
  51   23   27 2
  52   24   25 1
  53   25   26 1
  54   25   51 1
  55   25   52 1
  56   26   53 1
  57   26   54 1
  58   26   55 1

#	End of record

