#	Name: ASD01914361
#	Creating user name:	WinNT
#	Creation time:	15. 06. 2019 20:03

#	Modifying user name:	WinNT
#	Modification time:	15. 06. 2019 20:03

#	Program:	/corina/corina34_cracker 3.40 0067  02.08.2006

@<TRIPOS>MOLECULE
ASD01914361
  46   49    0    0    0
SMALL
NO_CHARGES


@<TRIPOS>ATOM
   1 C1            -0.0167     1.3820     0.0096 C.ar    
   2 C2             0.0021    -0.0041     0.0020 C.ar    
   3 C3             1.2181    -0.6611    -0.0131 C.ar    
   4 N4             2.3500     0.0151    -0.0199 N.ar    
   5 C5             2.3701     1.3338    -0.0130 C.ar    
   6 C6             1.1938     2.0586     0.0017 C.ar    
   7 C7             3.6914     2.0586    -0.0207 C.3     
   8 O8             3.4612     3.4689    -0.0111 O.3     
   9 C9             4.5555     4.2720    -0.0164 C.ar    
  10 C10            4.3960     5.6459    -0.0076 C.ar    
  11 C11            5.5219     6.4683    -0.0126 C.ar    
  12 C12            6.8075     5.8798    -0.0406 C.ar    
  13 C13            6.9435     4.4923    -0.0419 C.ar    
  14 C14            5.8288     3.7031    -0.0248 C.ar    
  15 N15            5.4256     7.8159     0.0253 N.2     
  16 C16            6.4722     8.6038     0.0027 C.2     
  17 N17            7.7322     8.1197    -0.1360 N.am    
  18 C18            7.9630     6.7793    -0.0820 C.2     
  19 C19            6.2025    10.0736     0.1908 C.3     
  20 C20            7.3284    10.9443    -0.3217 C.3     
  21 C21            8.6907    10.4015     0.0586 C.3     
  22 C22            8.8869     8.9729    -0.3956 C.3     
  23 O23            9.0985     6.3401    -0.0680 O.2     
  24 C24            9.7698    11.2777    -0.5808 C.3     
  25 C25            8.8422    10.4634     1.5798 C.3     
  26 H26           -0.9519     1.9222     0.0170 H       
  27 H27           -0.9217    -0.5635     0.0082 H       
  28 H28            1.2414    -1.7408    -0.0191 H       
  29 H29            1.2168     3.1383     0.0070 H       
  30 H30            4.2649     1.7780     0.8628 H       
  31 H31            4.2492     1.7876    -0.9170 H       
  32 H32            3.4065     6.0785     0.0027 H       
  33 H33            7.9258     4.0435    -0.0524 H       
  34 H34            5.9343     2.6282    -0.0258 H       
  35 H35            5.2867    10.3341    -0.3399 H       
  36 H36            6.0597    10.2721     1.2530 H       
  37 H37            7.2624    11.0047    -1.4080 H       
  38 H38            7.2182    11.9459     0.0939 H       
  39 H39            9.7519     8.5574     0.1213 H       
  40 H40            9.0890     8.9713    -1.4667 H       
  41 H41            9.6674    12.3013    -0.2203 H       
  42 H42           10.7545    10.8950    -0.3128 H       
  43 H43            9.6561    11.2612    -1.6647 H       
  44 H44            8.0625     9.8621     2.0473 H       
  45 H45            9.8202    10.0747     1.8637 H       
  46 H46            8.7519    11.4976     1.9121 H       
@<TRIPOS>BOND
   1    1    2 ar
   2    1    6 ar
   3    1   26 1
   4    2    3 ar
   5    2   27 1
   6    3    4 ar
   7    3   28 1
   8    4    5 ar
   9    5    6 ar
  10    5    7 1
  11    6   29 1
  12    7    8 1
  13    7   30 1
  14    7   31 1
  15    8    9 1
  16    9   10 ar
  17    9   14 ar
  18   10   11 ar
  19   10   32 1
  20   11   12 ar
  21   11   15 1
  22   12   13 ar
  23   12   18 1
  24   13   14 ar
  25   13   33 1
  26   14   34 1
  27   15   16 2
  28   16   17 1
  29   16   19 1
  30   17   18 am
  31   17   22 1
  32   18   23 2
  33   19   20 1
  34   19   35 1
  35   19   36 1
  36   20   21 1
  37   20   37 1
  38   20   38 1
  39   21   22 1
  40   21   24 1
  41   21   25 1
  42   22   39 1
  43   22   40 1
  44   24   41 1
  45   24   42 1
  46   24   43 1
  47   25   44 1
  48   25   45 1
  49   25   46 1

#	End of record

