#	Name: ASD00431244
#	Creating user name:	WinNT
#	Creation time:	15. 06. 2019 18:35

#	Modifying user name:	WinNT
#	Modification time:	15. 06. 2019 18:35

#	Program:	/corina/corina34_cracker 3.40 0067  02.08.2006

@<TRIPOS>MOLECULE
ASD00431244
  68   69    0    0    0
SMALL
NO_CHARGES


@<TRIPOS>ATOM
   1 S1            -0.1488     1.7030     0.1212 S.3     
   2 C2            -0.0996    -0.0057     0.0889 C.2     
   3 N3             1.1290    -0.4161     0.0892 N.2     
   4 C4             2.0691     0.5110     0.1131 C.2     
   5 C5             1.6119     1.7639     0.1340 C.2     
   6 Sn6            2.8135     3.5462     0.1760 Du      
   7 C7             1.5333     5.2733     0.2014 C.3     
   8 C8             0.6580     5.2778    -1.0535 C.3     
   9 C9            -0.2531     6.5069    -1.0354 C.3     
  10 C10           -1.1284     6.5113    -2.2903 C.3     
  11 C11            4.0435     3.5399     1.9394 C.3     
  12 C12            4.9546     2.3109     1.9213 C.3     
  13 C13            5.8299     2.3064     3.1762 C.3     
  14 C14            6.7410     1.0774     3.1582 C.3     
  15 C15            4.0655     3.6078    -1.5708 C.3     
  16 C16            4.9206     4.8762    -1.5409 C.3     
  17 C17            5.8116     4.9200    -2.7840 C.3     
  18 C18            6.6667     6.1883    -2.7541 C.3     
  19 O19           -1.1878    -0.8133     0.0667 O.3     
  20 C20           -0.9867    -2.1519    -0.0613 C.ar    
  21 C21           -0.3483    -2.8572     0.9484 C.ar    
  22 C22           -0.1441    -4.2169     0.8183 C.ar    
  23 C23           -0.5768    -4.8773    -0.3222 C.ar    
  24 C24           -1.2152    -4.1722    -1.3318 C.ar    
  25 C25           -1.4250    -2.8135    -1.1991 C.ar    
  26 O26           -0.3749    -6.2158    -0.4506 O.3     
  27 C27            0.4077    -6.8538     0.5606 C.3     
  28 C28           -0.5170    -7.4172     1.6415 C.3     
  29 C29            1.2163    -7.9930    -0.0633 C.3     
  30 H30            3.1228     0.2739     0.1159 H       
  31 H31            0.8986     5.2421     1.0870 H       
  32 H32            2.1425     6.1769     0.2227 H       
  33 H33            1.2927     5.3090    -1.9391 H       
  34 H34            0.0488     4.3742    -1.0748 H       
  35 H35           -0.8878     6.4756    -0.1498 H       
  36 H36            0.3561     7.4105    -1.0141 H       
  37 H37           -1.7376     5.6077    -2.3116 H       
  38 H38           -1.7774     7.3869    -2.2774 H       
  39 H39           -0.4937     6.5426    -3.1759 H       
  40 H40            4.6527     4.4435     1.9607 H       
  41 H41            3.4088     3.5087     2.8250 H       
  42 H42            4.3454     1.4073     1.9001 H       
  43 H43            5.5893     2.3421     1.0358 H       
  44 H44            6.4391     3.2100     3.1975 H       
  45 H45            5.1952     2.2752     4.0618 H       
  46 H46            7.3645     1.0742     4.0522 H       
  47 H47            6.1317     0.1738     3.1369 H       
  48 H48            7.3757     1.1086     2.2726 H       
  49 H49            4.7145     2.7322    -1.5837 H       
  50 H50            3.4419     3.6110    -2.4648 H       
  51 H51            4.2716     5.7518    -1.5280 H       
  52 H52            5.5442     4.8730    -0.6469 H       
  53 H53            6.4606     4.0444    -2.7969 H       
  54 H54            5.1880     4.9232    -3.6780 H       
  55 H55            7.3014     6.2196    -3.6397 H       
  56 H56            6.0176     7.0639    -2.7412 H       
  57 H57            7.2903     6.1851    -1.8601 H       
  58 H58           -0.0107    -2.3429     1.8361 H       
  59 H59            0.3529    -4.7660     1.6044 H       
  60 H60           -1.5521    -4.6865    -2.2198 H       
  61 H61           -1.9263    -2.2654    -1.9831 H       
  62 H62            1.0873    -6.1275     1.0063 H       
  63 H63           -1.1966    -8.1435     1.1958 H       
  64 H64            0.0800    -7.9039     2.4128 H       
  65 H65           -1.0931    -6.6056     2.0860 H       
  66 H66            1.8751    -7.5916    -0.8334 H       
  67 H67            1.8133    -8.4796     0.7080 H       
  68 H68            0.5367    -8.7193    -0.5090 H       
@<TRIPOS>BOND
   1    1    2 1
   2    1    5 1
   3    2    3 2
   4    2   19 1
   5    3    4 1
   6    4    5 2
   7    4   30 1
   8    5    6 1
   9    6    7 1
  10    6   11 1
  11    6   15 1
  12    7    8 1
  13    7   31 1
  14    7   32 1
  15    8    9 1
  16    8   33 1
  17    8   34 1
  18    9   10 1
  19    9   35 1
  20    9   36 1
  21   10   37 1
  22   10   38 1
  23   10   39 1
  24   11   12 1
  25   11   40 1
  26   11   41 1
  27   12   13 1
  28   12   42 1
  29   12   43 1
  30   13   14 1
  31   13   44 1
  32   13   45 1
  33   14   46 1
  34   14   47 1
  35   14   48 1
  36   15   16 1
  37   15   49 1
  38   15   50 1
  39   16   17 1
  40   16   51 1
  41   16   52 1
  42   17   18 1
  43   17   53 1
  44   17   54 1
  45   18   55 1
  46   18   56 1
  47   18   57 1
  48   19   20 1
  49   20   21 ar
  50   20   25 ar
  51   21   22 ar
  52   21   58 1
  53   22   23 ar
  54   22   59 1
  55   23   24 ar
  56   23   26 1
  57   24   25 ar
  58   24   60 1
  59   25   61 1
  60   26   27 1
  61   27   28 1
  62   27   29 1
  63   27   62 1
  64   28   63 1
  65   28   64 1
  66   28   65 1
  67   29   66 1
  68   29   67 1
  69   29   68 1

#	End of record

