#	Name: ASD01914352
#	Creating user name:	WinNT
#	Creation time:	15. 06. 2019 20:03

#	Modifying user name:	WinNT
#	Modification time:	15. 06. 2019 20:03

#	Program:	/corina/corina34_cracker 3.40 0067  02.08.2006

@<TRIPOS>MOLECULE
ASD01914352
  44   47    0    0    0
SMALL
NO_CHARGES


@<TRIPOS>ATOM
   1 C1             0.0473     1.2219    -0.2684 C.2     
   2 N2             0.0119    -0.1317    -0.2638 N.pl3   
   3 C3            -1.2075    -0.9383    -0.1628 C.3     
   4 C4            -2.3410    -0.0723     0.3975 C.3     
   5 N5            -2.3523     1.2221    -0.3009 N.am    
   6 C6            -1.1762     2.0996    -0.1512 C.3     
   7 C7            -3.0603     4.0564    -0.8938 C.ar    
   8 C8            -3.4468     2.9470    -1.6482 C.ar    
   9 C9            -3.4053     1.5951    -1.0549 C.2     
  10 C10           -3.1019     5.3160    -1.4536 C.ar    
  11 C11           -3.5254     5.4839    -2.7607 C.ar    
  12 C12           -3.8739     3.1223    -2.9684 C.ar    
  13 C13            1.3331     1.6053    -0.3867 C.2     
  14 C14            2.1196     0.4473    -0.4517 C.2     
  15 N15            1.3263    -0.5927    -0.3757 N.2     
  16 C16            3.6200     0.4053    -0.5858 C.3     
  17 O17            4.2145     0.3984     0.7136 O.3     
  18 C18            5.5718     0.3617     0.7710 C.ar    
  19 C19            6.2153     0.3529     2.0001 C.ar    
  20 C20            7.5951     0.3151     2.0557 C.ar    
  21 C21            8.3347     0.2861     0.8879 C.ar    
  22 C22            6.3160     0.3272    -0.3993 C.ar    
  23 O23           -4.3210     0.8187    -1.2467 O.2     
  24 C24            7.6957     0.2953    -0.3383 C.ar    
  25 C25           -3.9101     4.3917    -3.5158 C.ar    
  26 Cl26           1.9121     3.2407    -0.4485 Cl      
  27 F27           -4.2504     2.0550    -3.7064 F       
  28 H28           -1.4842    -1.3053    -1.1512 H       
  29 H29           -1.0312    -1.7828     0.5035 H       
  30 H30           -3.2948    -0.5771     0.2439 H       
  31 H31           -2.1820     0.0906     1.4634 H       
  32 H32           -1.1949     2.5831     0.8256 H       
  33 H33           -1.1709     2.8522    -0.9396 H       
  34 H34           -2.7336     3.9289     0.1276 H       
  35 H35           -2.8029     6.1743    -0.8702 H       
  36 H36           -3.5558     6.4732    -3.1927 H       
  37 H37            3.9116    -0.4968    -1.1236 H       
  38 H38            3.9602     1.2825    -1.1363 H       
  39 H39            5.6380     0.3759     2.9125 H       
  40 H40            8.0965     0.3086     3.0122 H       
  41 H41            9.4133     0.2566     0.9335 H       
  42 H42            5.8173     0.3295    -1.3572 H       
  43 H43            8.2757     0.2729    -1.2491 H       
  44 H44           -4.2398     4.5301    -4.5348 H       
@<TRIPOS>BOND
   1    1    2 1
   2    1   13 2
   3    1    6 1
   4    2    3 1
   5    2   15 1
   6    3    4 1
   7    3   28 1
   8    3   29 1
   9    4    5 1
  10    4   30 1
  11    4   31 1
  12    5    6 1
  13    5    9 am
  14    6   32 1
  15    6   33 1
  16    7    8 ar
  17    7   10 ar
  18    7   34 1
  19    8    9 1
  20    8   12 ar
  21    9   23 2
  22   10   11 ar
  23   10   35 1
  24   11   25 ar
  25   11   36 1
  26   12   27 1
  27   12   25 ar
  28   13   14 1
  29   13   26 1
  30   14   15 2
  31   14   16 1
  32   16   17 1
  33   16   37 1
  34   16   38 1
  35   17   18 1
  36   18   19 ar
  37   18   22 ar
  38   19   20 ar
  39   19   39 1
  40   20   21 ar
  41   20   40 1
  42   21   24 ar
  43   21   41 1
  44   22   24 ar
  45   22   42 1
  46   24   43 1
  47   25   44 1

#	End of record

