#	Name: ASD01903351
#	Creating user name:	WinNT
#	Creation time:	15. 06. 2019 19:54

#	Modifying user name:	WinNT
#	Modification time:	15. 06. 2019 19:54

#	Program:	/corina/corina34_cracker 3.40 0067  02.08.2006

@<TRIPOS>MOLECULE
ASD01903351
  46   50    0    0    0
SMALL
NO_CHARGES


@<TRIPOS>ATOM
   1 C1            -0.0684     1.3465    -0.1298 C.ar    
   2 C2            -0.0424    -0.0324    -0.1320 C.ar    
   3 C3             1.1683    -0.7158    -0.1232 C.ar    
   4 C4             2.3493    -0.0098    -0.1128 C.ar    
   5 C5             2.3205     1.3802    -0.1111 C.ar    
   6 C6             1.1183     2.0559    -0.1193 C.ar    
   7 S7             1.4733    -2.4530    -0.1231 S.o2    
   8 N8             3.1220    -2.6433    -0.1102 N.am    
   9 S9             3.7349    -1.1010    -0.1032 S.o2    
  10 O10            4.3963    -0.9241    -1.3484 O.2     
  11 O11            4.3763    -0.9276     1.1529 O.2     
  12 O12            1.0006    -2.9455     1.1232 O.2     
  13 O13            1.0206    -2.9421    -1.3782 O.2     
  14 C14            3.8403    -3.8450    -0.1057 C.ar    
  15 C15            5.2286    -3.8240    -0.0946 C.ar    
  16 C16            5.9372    -5.0093    -0.0907 C.ar    
  17 C17            5.2612    -6.2222    -0.0974 C.ar    
  18 C18            3.8728    -6.2433    -0.1080 C.ar    
  19 C19            3.1643    -5.0580    -0.1066 C.ar    
  20 N20            5.9795    -7.4239    -0.0938 N.pl3   
  21 C21            5.2704    -8.7008     0.0199 C.3     
  22 C22            4.5590    -8.9350     1.3276 C.ar    
  23 C23            5.1078    -8.4510     2.4998 C.ar    
  24 C24            4.4452    -8.6718     3.6978 C.ar    
  25 C25            3.2503    -9.3743     3.6712 C.ar    
  26 C26            2.7626    -9.8280     2.4600 C.ar    
  27 N27            3.4171    -9.5948     1.3394 N.ar    
  28 C28            4.6242    -9.2653    -1.2468 C.3     
  29 C29            5.8870    -9.9157    -0.6763 C.3     
  30 H30           -1.0127     1.8705    -0.1408 H       
  31 H31           -0.9699    -0.5856    -0.1401 H       
  32 H32            3.2469     1.9352    -0.1029 H       
  33 H33            1.1038     3.1358    -0.1184 H       
  34 H34            5.7544    -2.8806    -0.0895 H       
  35 H35            7.0170    -4.9929    -0.0828 H       
  36 H36            3.3471    -7.1867    -0.1131 H       
  37 H37            2.0844    -5.0743    -0.1148 H       
  38 H38            6.9467    -7.4110    -0.1667 H       
  39 H39            6.0411    -7.9078     2.4832 H       
  40 H40            4.8505    -8.3056     4.6294 H       
  41 H41            2.7076    -9.5649     4.5852 H       
  42 H42            1.8326   -10.3763     2.4308 H       
  43 H43            3.6847    -9.8064    -1.1343 H       
  44 H44            4.7267    -8.6867    -2.1648 H       
  45 H45            6.8201    -9.7650    -1.2192 H       
  46 H46            5.7778   -10.8845    -0.1887 H       
@<TRIPOS>BOND
   1    1    2 ar
   2    1    6 ar
   3    1   30 1
   4    2    3 ar
   5    2   31 1
   6    3    4 ar
   7    3    7 1
   8    4    5 ar
   9    4    9 1
  10    5    6 ar
  11    5   32 1
  12    6   33 1
  13    7    8 am
  14    7   12 2
  15    7   13 2
  16    8    9 am
  17    8   14 1
  18    9   10 2
  19    9   11 2
  20   14   15 ar
  21   14   19 ar
  22   15   16 ar
  23   15   34 1
  24   16   17 ar
  25   16   35 1
  26   17   18 ar
  27   17   20 1
  28   18   19 ar
  29   18   36 1
  30   19   37 1
  31   20   21 1
  32   20   38 1
  33   21   22 1
  34   21   28 1
  35   21   29 1
  36   22   23 ar
  37   22   27 ar
  38   23   24 ar
  39   23   39 1
  40   24   25 ar
  41   24   40 1
  42   25   26 ar
  43   25   41 1
  44   26   27 ar
  45   26   42 1
  46   28   29 1
  47   28   43 1
  48   28   44 1
  49   29   45 1
  50   29   46 1

#	End of record

