#	Name: ASD04162009
#	Creating user name:	WinNT
#	Creation time:	15. 06. 2019 20:48

#	Modifying user name:	WinNT
#	Modification time:	15. 06. 2019 20:48

#	Program:	/corina/corina34_cracker 3.40 0067  02.08.2006

@<TRIPOS>MOLECULE
ASD04162009
  34   36    0    0    0
SMALL
NO_CHARGES


@<TRIPOS>ATOM
   1 C1            -0.0167     1.3810     0.0096 C.ar    
   2 C2             0.0021    -0.0041     0.0020 C.ar    
   3 C3             1.2185    -0.6805    -0.0132 C.ar    
   4 C4             2.4050     0.0345    -0.0207 C.ar    
   5 C5             2.3792     1.4170    -0.0130 C.ar    
   6 C6             1.1713     2.0887     0.0021 C.ar    
   7 O7             1.2422    -2.0402    -0.0203 O.3     
   8 O8            -1.1654    -0.7015     0.0099 O.3     
   9 C9             3.6709     2.1932    -0.0207 C.3     
  10 O10            3.5046     3.3875    -0.7846 O.3     
  11 C11            4.5035     4.3012    -0.7874 C.ar    
  12 C12            5.4455     4.3413     0.2571 C.ar    
  13 C13            5.3415     3.3663     1.3483 C.2     
  14 C14            4.0565     2.5609     1.4196 C.3     
  15 O15            3.0220     3.3468     2.0150 O.3     
  16 C16            4.6056     5.2099    -1.8261 C.ar    
  17 C17            5.6251     6.1531    -1.8317 C.ar    
  18 C18            6.5533     6.2003    -0.7986 C.ar    
  19 C19            6.4704     5.3006     0.2489 C.ar    
  20 O20            6.2372     3.2111     2.1527 O.2     
  21 O21            7.3727     5.3450     1.2604 O.3     
  22 O22            5.7160     7.0373    -2.8567 O.3     
  23 H23           -0.9592     1.9083     0.0170 H       
  24 H24            3.3502    -0.4879    -0.0322 H       
  25 H25            1.1553     3.1685     0.0077 H       
  26 H26            1.2404    -2.4290    -0.9057 H       
  27 H27           -1.5118    -0.8984    -0.8712 H       
  28 H28            4.4586     1.5842    -0.4644 H       
  29 H29            4.2182     1.6548     2.0034 H       
  30 H30            3.2200     3.6410     2.9146 H       
  31 H31            3.8905     5.1854    -2.6350 H       
  32 H32            7.3403     6.9397    -0.8137 H       
  33 H33            7.1129     5.9187     1.9942 H       
  34 H34            5.2235     7.8571    -2.7138 H       
@<TRIPOS>BOND
   1    1    2 ar
   2    1    6 ar
   3    1   23 1
   4    2    3 ar
   5    2    8 1
   6    3    4 ar
   7    3    7 1
   8    4    5 ar
   9    4   24 1
  10    5    6 ar
  11    5    9 1
  12    6   25 1
  13    7   26 1
  14    8   27 1
  15    9   10 1
  16    9   14 1
  17    9   28 1
  18   10   11 1
  19   11   12 ar
  20   11   16 ar
  21   12   13 1
  22   12   19 ar
  23   13   14 1
  24   13   20 2
  25   14   15 1
  26   14   29 1
  27   15   30 1
  28   16   17 ar
  29   16   31 1
  30   17   18 ar
  31   17   22 1
  32   18   19 ar
  33   18   32 1
  34   19   21 1
  35   21   33 1
  36   22   34 1

#	End of record

