#	Name: ASD01880964
#	Creating user name:	WinNT
#	Creation time:	15. 06. 2019 19:41

#	Modifying user name:	WinNT
#	Modification time:	15. 06. 2019 19:41

#	Program:	/corina/corina34_cracker 3.40 0067  02.08.2006

@<TRIPOS>MOLECULE
ASD01880964
  35   37    0    0    0
SMALL
NO_CHARGES


@<TRIPOS>ATOM
   1 N1            -0.0158     1.3148     0.0093 N.ar    
   2 C2             0.0021    -0.0041     0.0020 C.ar    
   3 N3             1.1335    -0.6826    -0.0120 N.ar    
   4 C4             2.2996    -0.0568    -0.0198 C.ar    
   5 C5             2.3218     1.3285    -0.0130 C.ar    
   6 C6             1.1125     2.0081     0.0022 C.ar    
   7 C7             3.6285     2.0791    -0.0214 C.3     
   8 O8             4.7125     1.1481    -0.0363 O.3     
   9 C9             5.9677     1.6641    -0.0454 C.ar    
  10 C10            7.0690     0.8130    -0.0600 C.ar    
  11 C11            8.3382     1.3350    -0.0697 C.ar    
  12 C12            8.5342     2.7203    -0.0650 C.ar    
  13 C13            7.4243     3.5718    -0.0503 C.ar    
  14 C14            6.1517     3.0410    -0.0460 C.ar    
  15 C15            9.7115     0.7111    -0.0863 C.3     
  16 N16           10.6670     1.8247    -0.0905 N.am    
  17 C17            9.9831     2.9816    -0.0782 C.2     
  18 O18           10.4892     4.0873    -0.0783 O.2     
  19 Cl19          -1.5026    -0.8698     0.0117 Cl      
  20 Cl20           7.6487     5.2932    -0.0438 Cl      
  21 Br21           1.0758     3.8987     0.0115 Br      
  22 C22           12.6196     1.6591    -1.5538 C.3     
  23 C23           12.1263     1.6965    -0.1060 C.3     
  24 H24            3.2219    -0.6186    -0.0309 H       
  25 H25            3.6793     2.7101    -0.9087 H       
  26 H26            3.6960     2.7011     0.8711 H       
  27 H27            6.9248    -0.2573    -0.0633 H       
  28 H28            5.2947     3.6982    -0.0350 H       
  29 H29            9.8551     0.0974     0.8030 H       
  30 H30            9.8373     0.1060    -0.9842 H       
  31 H31           13.7054     1.5637    -1.5654 H       
  32 H32           12.1745     0.8069    -2.0674 H       
  33 H33           12.3304     2.5800    -2.0601 H       
  34 H34           12.5714     2.5486     0.4076 H       
  35 H35           12.4156     0.7755     0.4003 H       
@<TRIPOS>BOND
   1    1    2 ar
   2    1    6 ar
   3    2    3 ar
   4    2   19 1
   5    3    4 ar
   6    4    5 ar
   7    4   24 1
   8    5    6 ar
   9    5    7 1
  10    6   21 1
  11    7    8 1
  12    7   25 1
  13    7   26 1
  14    8    9 1
  15    9   10 ar
  16    9   14 ar
  17   10   11 ar
  18   10   27 1
  19   11   12 ar
  20   11   15 1
  21   12   13 ar
  22   12   17 1
  23   13   14 ar
  24   13   20 1
  25   14   28 1
  26   15   16 1
  27   15   29 1
  28   15   30 1
  29   16   17 am
  30   16   23 1
  31   17   18 2
  32   22   23 1
  33   22   31 1
  34   22   32 1
  35   22   33 1
  36   23   34 1
  37   23   35 1

#	End of record

