#	Name: ASD03330986
#	Creating user name:	WinNT
#	Creation time:	15. 06. 2019 20:38

#	Modifying user name:	WinNT
#	Modification time:	15. 06. 2019 20:38

#	Program:	/corina/corina34_cracker 3.40 0067  02.08.2006

@<TRIPOS>MOLECULE
ASD03330986
  64   67    0    0    0
SMALL
NO_CHARGES


@<TRIPOS>ATOM
   1 N1            -0.8283     1.7371    -0.4390 N.pl3   
   2 C2            -0.6551     0.4164    -0.1664 C.2     
   3 C3             0.6553    -0.2457     0.1707 C.3     
   4 N4             1.3527     0.5558     1.1885 N.3     
   5 C5             2.1973     1.5795     0.5702 C.3     
   6 C6             1.5699     2.0983    -0.7204 C.3     
   7 C7             0.2229     2.7581    -0.4134 C.3     
   8 C8            -2.1494     1.9257    -0.7239 C.2     
   9 N9            -2.7700     0.7745    -0.6145 N.2     
  10 C10           -1.8760    -0.1777    -0.2687 C.2     
  11 C11           -2.1697    -1.6040    -0.0430 C.2     
  12 O12           -1.2749    -2.3677     0.2657 O.2     
  13 N13           -3.4299    -2.0623    -0.1788 N.am    
  14 C14            2.1371    -0.3016     2.0871 C.3     
  15 C15           -2.7772     3.2127    -1.0938 C.ar    
  16 C16           -3.6453     3.2817    -2.1868 C.ar    
  17 C17           -4.2288     4.4878    -2.5264 C.ar    
  18 C18           -3.9548     5.6239    -1.7870 C.ar    
  19 C19           -3.0952     5.5617    -0.7034 C.ar    
  20 C20           -2.5100     4.3619    -0.3498 C.ar    
  21 F21           -3.9132     2.1724    -2.9099 F       
  22 Cl22          -2.7574     6.9942     0.2171 Cl      
  23 C23           -4.9603    -3.8656    -0.7216 C.2     
  24 C24           -3.7218    -3.4802     0.0456 C.3     
  25 C25           -3.9503    -3.7239     1.5386 C.3     
  26 C26           -4.3627    -5.1805     1.7605 C.3     
  27 O27           -5.8297    -3.0441    -0.9220 O.2     
  28 C28           -2.6580    -3.4372     2.3058 C.3     
  29 C29           -5.0588    -2.7976     2.0428 C.3     
  30 N30           -5.1019    -5.1232    -1.1851 N.am    
  31 C31           -6.1551    -5.8867    -1.8713 C.3     
  32 C32           -5.5668    -7.1581    -1.2441 C.3     
  33 C33           -4.2687    -6.3341    -1.2331 C.3     
  34 H34            0.4684    -1.2464     0.5601 H       
  35 H35            1.2715    -0.3118    -0.7261 H       
  36 H36            2.3224     2.4089     1.2663 H       
  37 H37            3.1741     1.1505     0.3464 H       
  38 H38            2.2357     2.8298    -1.1785 H       
  39 H39            1.4177     1.2672    -1.4090 H       
  40 H40            0.0102     3.5191    -1.1642 H       
  41 H41            0.2594     3.2188     0.5738 H       
  42 H42           -4.1435    -1.4532    -0.4250 H       
  43 H43            2.8303    -0.9047     1.5007 H       
  44 H44            2.6974     0.3202     2.7853 H       
  45 H45            1.4656    -0.9567     2.6422 H       
  46 H46           -4.8996     4.5431    -3.3709 H       
  47 H47           -4.4132     6.5640    -2.0563 H       
  48 H48           -1.8435     4.3143     0.4987 H       
  49 H49           -2.8804    -4.0829    -0.2963 H       
  50 H50           -3.5655    -5.8400     1.4177 H       
  51 H51           -4.5428    -5.3495     2.8221 H       
  52 H52           -5.2736    -5.3896     1.1996 H       
  53 H53           -2.3642    -2.3995     2.1478 H       
  54 H54           -2.8208    -3.6108     3.3695 H       
  55 H55           -1.8683    -4.0971     1.9467 H       
  56 H56           -5.9795    -3.0018     1.4962 H       
  57 H57           -5.2216    -2.9712     3.1065 H       
  58 H58           -4.7650    -1.7599     1.8847 H       
  59 H59           -7.1598    -5.6536    -1.5188 H       
  60 H60           -6.0724    -5.8604    -2.9578 H       
  61 H61           -5.9601    -7.3916    -0.2547 H       
  62 H62           -5.5427    -8.0172    -1.9144 H       
  63 H63           -3.6887    -6.4258    -2.1514 H       
  64 H64           -3.6662    -6.4823    -0.3369 H       
@<TRIPOS>BOND
   1    1    2 1
   2    1    7 1
   3    1    8 1
   4    2    3 1
   5    2   10 2
   6    3    4 1
   7    3   34 1
   8    3   35 1
   9    4    5 1
  10    4   14 1
  11    5    6 1
  12    5   36 1
  13    5   37 1
  14    6    7 1
  15    6   38 1
  16    6   39 1
  17    7   40 1
  18    7   41 1
  19    8    9 2
  20    8   15 1
  21    9   10 1
  22   10   11 1
  23   11   12 2
  24   11   13 am
  25   13   24 1
  26   13   42 1
  27   14   43 1
  28   14   44 1
  29   14   45 1
  30   15   16 ar
  31   15   20 ar
  32   16   17 ar
  33   16   21 1
  34   17   18 ar
  35   17   46 1
  36   18   19 ar
  37   18   47 1
  38   19   20 ar
  39   19   22 1
  40   20   48 1
  41   23   27 2
  42   23   30 am
  43   23   24 1
  44   24   25 1
  45   24   49 1
  46   25   26 1
  47   25   28 1
  48   25   29 1
  49   26   50 1
  50   26   51 1
  51   26   52 1
  52   28   53 1
  53   28   54 1
  54   28   55 1
  55   29   56 1
  56   29   57 1
  57   29   58 1
  58   30   31 1
  59   30   33 1
  60   31   32 1
  61   31   59 1
  62   31   60 1
  63   32   33 1
  64   32   61 1
  65   32   62 1
  66   33   63 1
  67   33   64 1

#	End of record

