#	Name: ASD05720081
#	Creating user name:	WinNT
#	Creation time:	15. 06. 2019 21:01

#	Modifying user name:	WinNT
#	Modification time:	15. 06. 2019 21:01

#	Program:	/corina/corina34_cracker 3.40 0067  02.08.2006

@<TRIPOS>MOLECULE
ASD05720081
  70   75    0    0    0
SMALL
NO_CHARGES


@<TRIPOS>ATOM
   1 O1            -0.0161     1.3334     0.0094 O.3     
   2 C2             0.0021    -0.0041     0.0020 C.2     
   3 N3             1.2348    -0.5293    -0.0126 N.am    
   4 C4             2.2183     0.5645    -0.0161 C.3     
   5 C5             1.3508     1.8379    -0.0010 C.3     
   6 O6            -1.0069    -0.6808     0.0084 O.2     
   7 C7             2.4900     0.2050    -2.4835 C.ar    
   8 C8             3.0621     0.5136    -1.2636 C.ar    
   9 C9             4.4219     0.7761    -1.2024 C.ar    
  10 C10            5.1588     0.7182    -2.3757 C.ar    
  11 C11            4.5178     0.4030    -3.5586 C.ar    
  12 N12            3.2219     0.1586    -3.5793 N.ar    
  13 C13            3.0997    -3.5830    -0.0446 C.2     
  14 N14            2.7934    -2.2820    -0.0358 N.2     
  15 C15            1.5348    -1.8852    -0.0220 C.2     
  16 C16            0.4948    -2.8369    -0.0165 C.2     
  17 C17            0.8012    -4.1542    -0.0253 C.2     
  18 N18            2.1144    -4.5345    -0.0395 N.pl3   
  19 N19            2.7294    -5.7914    -0.0515 N.2     
  20 C20            4.0306    -5.6364    -0.0634 C.2     
  21 C21            4.3226    -4.2670    -0.0650 C.2     
  22 C22            5.6706    -3.6561    -0.0831 C.ar    
  23 C23            6.6407    -4.0788     0.8272 C.ar    
  24 C24            7.8966    -3.5089     0.8095 C.ar    
  25 C25            8.1963    -2.5093    -0.1195 C.ar    
  26 C26            7.2260    -2.0883    -1.0281 C.ar    
  27 C27            5.9737    -2.6612    -1.0144 C.ar    
  28 N28           11.2830    -0.6691    -0.6320 N.pl3   
  29 N29            9.9472    -0.9508    -0.9614 N.2     
  30 C30            9.5460    -1.8958    -0.1389 C.2     
  31 N31           10.5598    -2.2120     0.6787 N.2     
  32 C32           11.6046    -1.4818     0.3903 C.2     
  33 C33           12.1567     0.3128    -1.2791 C.3     
  34 O34           13.4403     0.2949    -0.6514 O.3     
  35 C35           14.3736     1.2215    -1.2104 C.3     
  36 C36           15.7057     1.1160    -0.4651 C.3     
  37 Si37          16.9224     2.3239    -1.1939 Si      
  38 C38           16.2537     4.0549    -1.0286 C.3     
  39 C39           18.5443     2.1955    -0.2864 C.3     
  40 C40           17.1859     1.9294    -2.9954 C.3     
  41 F41            8.8363    -3.9168     1.6903 F       
  42 H42            2.8457     0.5180     0.8740 H       
  43 H43            1.5314     2.4339    -0.8956 H       
  44 H44            1.5485     2.4243     0.8964 H       
  45 H45            1.4321    -0.0052    -2.5390 H       
  46 H46            4.8961     1.0203    -0.2633 H       
  47 H47            6.2202     0.9173    -2.3652 H       
  48 H48            5.0845     0.3558    -4.4767 H       
  49 H49           -0.5367    -2.5172    -0.0049 H       
  50 H50            0.0174    -4.8972    -0.0209 H       
  51 H51            4.7584    -6.4342    -0.0738 H       
  52 H52            6.4080    -4.8513     1.5451 H       
  53 H53            7.4581    -1.3156    -1.7461 H       
  54 H54            5.2243    -2.3375    -1.7215 H       
  55 H55           12.5623    -1.5238     0.8878 H       
  56 H56           12.2649     0.0631    -2.3346 H       
  57 H57           11.7195     1.3067    -1.1838 H       
  58 H58           14.5278     0.9906    -2.2645 H       
  59 H59           13.9824     2.2342    -1.1137 H       
  60 H60           15.5515     1.3468     0.5890 H       
  61 H61           16.0969     0.1032    -0.5618 H       
  62 H62           16.0996     4.2858     0.0254 H       
  63 H63           16.9656     4.7617    -1.4550 H       
  64 H64           15.3048     4.1301    -1.5596 H       
  65 H65           18.9356     1.1827    -0.3830 H       
  66 H66           19.2562     2.9022    -0.7127 H       
  67 H67           18.3902     2.4264     0.7677 H       
  68 H68           16.2369     2.0045    -3.5264 H       
  69 H69           17.8978     2.6361    -3.4218 H       
  70 H70           17.5771     0.9166    -3.0921 H       
@<TRIPOS>BOND
   1    1    2 1
   2    1    5 1
   3    2    3 am
   4    2    6 2
   5    3    4 1
   6    3   15 1
   7    4    5 1
   8    4    8 1
   9    4   42 1
  10    5   43 1
  11    5   44 1
  12    7    8 ar
  13    7   12 ar
  14    7   45 1
  15    8    9 ar
  16    9   10 ar
  17    9   46 1
  18   10   11 ar
  19   10   47 1
  20   11   12 ar
  21   11   48 1
  22   13   14 1
  23   13   18 1
  24   13   21 2
  25   14   15 2
  26   15   16 1
  27   16   17 2
  28   16   49 1
  29   17   18 1
  30   17   50 1
  31   18   19 1
  32   19   20 2
  33   20   21 1
  34   20   51 1
  35   21   22 1
  36   22   23 ar
  37   22   27 ar
  38   23   24 ar
  39   23   52 1
  40   24   25 ar
  41   24   41 1
  42   25   26 ar
  43   25   30 1
  44   26   27 ar
  45   26   53 1
  46   27   54 1
  47   28   29 1
  48   28   32 1
  49   28   33 1
  50   29   30 2
  51   30   31 1
  52   31   32 2
  53   32   55 1
  54   33   34 1
  55   33   56 1
  56   33   57 1
  57   34   35 1
  58   35   36 1
  59   35   58 1
  60   35   59 1
  61   36   37 1
  62   36   60 1
  63   36   61 1
  64   37   38 1
  65   37   39 1
  66   37   40 1
  67   38   62 1
  68   38   63 1
  69   38   64 1
  70   39   65 1
  71   39   66 1
  72   39   67 1
  73   40   68 1
  74   40   69 1
  75   40   70 1

#	End of record

