#	Name: ASD01910561
#	Creating user name:	WinNT
#	Creation time:	15. 06. 2019 19:56

#	Modifying user name:	WinNT
#	Modification time:	15. 06. 2019 19:56

#	Program:	/corina/corina34_cracker 3.40 0067  02.08.2006

@<TRIPOS>MOLECULE
ASD01910561
  41   44    0    0    0
SMALL
NO_CHARGES


@<TRIPOS>ATOM
   1 O1             0.1196     0.7035    -0.2245 O.3     
   2 C2             0.2625    -0.6323    -0.1921 C.2     
   3 N3             1.5651    -0.8717    -0.1462 N.2     
   4 C4             2.1519     0.3341    -0.1530 C.2     
   5 N5             1.2112     1.2313    -0.2013 N.2     
   6 C6            -0.8139    -1.6311    -0.2045 C.2     
   7 C7            -2.1659    -1.3696    -0.2524 C.2     
   8 C8            -2.8261    -2.6056    -0.2467 C.2     
   9 C9            -1.8849    -3.5780    -0.1966 C.2     
  10 N10           -0.6549    -2.9964    -0.1765 N.pl3   
  11 C11            3.9705     1.4289     1.1326 C.3     
  12 C12            3.6344     0.6016    -0.1121 C.3     
  13 C13            4.0478     1.3793    -1.3636 C.3     
  14 C14            5.5585     1.6230    -1.3390 C.3     
  15 C15            5.9164     2.4619    -0.1082 C.3     
  16 N16            5.3939     1.7907     1.0898 N.am    
  17 C17            6.2049     1.5118     2.1295 C.2     
  18 C18            5.6402     0.9546     3.3808 C.ar    
  19 O19            7.3992     1.7174     2.0406 O.2     
  20 C20            6.3047    -0.0578     4.0804 C.ar    
  21 C21            5.7442    -0.5491     5.2428 C.ar    
  22 N22            4.5992    -0.0773     5.6953 N.ar    
  23 C23            3.9387     0.8774     5.0671 C.ar    
  24 C24            4.4321     1.4302     3.8972 C.ar    
  25 F25           -4.1635    -2.7936    -0.2839 F       
  26 F26            2.7692     1.3245     5.5746 F       
  27 H27           -2.6297    -0.3949    -0.2873 H       
  28 H28           -2.0785    -4.6403    -0.1795 H       
  29 H29            0.1928    -3.4666    -0.1415 H       
  30 H30            3.3636     2.3342     1.1445 H       
  31 H31            3.7699     0.8402     2.0278 H       
  32 H32            4.1744    -0.3446    -0.0768 H       
  33 H33            3.7873     0.8035    -2.2516 H       
  34 H34            3.5260     2.3361    -1.3855 H       
  35 H35            6.0804     0.6672    -1.2922 H       
  36 H36            5.8557     2.1565    -2.2419 H       
  37 H37            6.9998     2.5547    -0.0317 H       
  38 H38            5.4682     3.4514    -0.1975 H       
  39 H39            7.2428    -0.4501     3.7165 H       
  40 H40            6.2507    -1.3312     5.7889 H       
  41 H41            3.8876     2.2114     3.3876 H       
@<TRIPOS>BOND
   1    1    2 1
   2    1    5 1
   3    2    3 2
   4    2    6 1
   5    3    4 1
   6    4    5 2
   7    4   12 1
   8    6    7 2
   9    6   10 1
  10    7    8 1
  11    7   27 1
  12    8    9 2
  13    8   25 1
  14    9   10 1
  15    9   28 1
  16   10   29 1
  17   11   12 1
  18   11   16 1
  19   11   30 1
  20   11   31 1
  21   12   13 1
  22   12   32 1
  23   13   14 1
  24   13   33 1
  25   13   34 1
  26   14   15 1
  27   14   35 1
  28   14   36 1
  29   15   16 1
  30   15   37 1
  31   15   38 1
  32   16   17 am
  33   17   18 1
  34   17   19 2
  35   18   20 ar
  36   18   24 ar
  37   20   21 ar
  38   20   39 1
  39   21   22 ar
  40   21   40 1
  41   22   23 ar
  42   23   24 ar
  43   23   26 1
  44   24   41 1

#	End of record

