#	Name: ASD07730013
#	Creating user name:	WinNT
#	Creation time:	15. 06. 2019 21:11

#	Modifying user name:	WinNT
#	Modification time:	15. 06. 2019 21:11

#	Program:	/corina/corina34_cracker 3.40 0067  02.08.2006

@<TRIPOS>MOLECULE
ASD07730013
  31   32    0    0    0
SMALL
NO_CHARGES


@<TRIPOS>ATOM
   1 C1            -0.0184     1.3758    -0.0352 C.ar    
   2 C2             1.0904     1.9495     0.5591 C.ar    
   3 C3             2.2987     1.2804     0.5609 C.ar    
   4 C4             2.3992     0.0299    -0.0351 C.ar    
   5 C5             1.2830    -0.5437    -0.6313 C.ar    
   6 C6             0.0781     0.1306    -0.6295 C.ar    
   7 C7            -1.1332    -0.4907    -1.2759 C.3     
   8 F8            -1.8261    -1.2544    -0.3305 F       
   9 F9            -1.9702     0.5182    -1.7645 F       
  10 F10           -0.7276    -1.3128    -2.3328 F       
  11 N11            3.6204    -0.6498    -0.0355 N.pl3   
  12 C12            3.6443    -2.0370     0.0623 C.ar    
  13 C13            4.8525    -2.7157    -0.0577 C.ar    
  14 N14            2.5173    -2.6995     0.2743 N.ar    
  15 C15            2.4963    -4.0148     0.3738 C.ar    
  16 C16            3.6581    -4.7523     0.2598 C.ar    
  17 C17            4.8618    -4.0955     0.0420 C.ar    
  18 S18            6.3506    -1.8302    -0.3336 S.o2    
  19 N19            6.2288    -1.1121    -1.8209 N.am    
  20 O20            6.3755    -0.7768     0.6197 O.2     
  21 O21            7.3788    -2.8050    -0.4417 O.2     
  22 H22           -0.9631     1.8992    -0.0313 H       
  23 H23            1.0117     2.9221     1.0220 H       
  24 H24            3.1646     1.7293     1.0249 H       
  25 H25            1.3578    -1.5158    -1.0959 H       
  26 H26            4.4513    -0.1540    -0.1039 H       
  27 H27            1.5583    -4.5214     0.5469 H       
  28 H28            3.6313    -5.8287     0.3430 H       
  29 H29            5.7842    -4.6496    -0.0510 H       
  30 H30            5.4262    -1.2309    -2.3525 H       
  31 H31            6.9600    -0.5727    -2.1604 H       
@<TRIPOS>BOND
   1    1    2 ar
   2    1    6 ar
   3    1   22 1
   4    2    3 ar
   5    2   23 1
   6    3    4 ar
   7    3   24 1
   8    4    5 ar
   9    4   11 1
  10    5    6 ar
  11    5   25 1
  12    6    7 1
  13    7    8 1
  14    7    9 1
  15    7   10 1
  16   11   12 1
  17   11   26 1
  18   12   13 ar
  19   12   14 ar
  20   13   18 1
  21   13   17 ar
  22   14   15 ar
  23   15   16 ar
  24   15   27 1
  25   16   17 ar
  26   16   28 1
  27   17   29 1
  28   18   19 am
  29   18   20 2
  30   18   21 2
  31   19   30 1
  32   19   31 1

#	End of record

