#	Name: ASD01410857
#	Creating user name:	WinNT
#	Creation time:	15. 06. 2019 19:18

#	Modifying user name:	WinNT
#	Modification time:	15. 06. 2019 19:18

#	Program:	/corina/corina34_cracker 3.40 0067  02.08.2006

@<TRIPOS>MOLECULE
ASD01410857
 114  121    0    0    0
SMALL
NO_CHARGES


@<TRIPOS>ATOM
   1 N1             3.0595     1.1774    -0.9533 N.3     
   2 C2             3.2373    -2.6080    -0.7025 C.3     
   3 C3             2.9038    -1.2248    -1.3067 C.3     
   4 N4             3.9031    -1.0525    -2.3846 N.am    
   5 C5             4.2844    -2.3777    -2.8797 C.3     
   6 C6             3.5819    -3.4204    -1.9815 C.3     
   7 O7             4.3627    -2.5280     0.1744 O.3     
   8 C8             3.8307    -2.5418    -4.3073 C.2     
   9 O9             3.2430    -1.6390    -4.8645 O.2     
  10 N10            4.0780    -3.6919    -4.9650 N.am    
  11 C11            3.1720    -0.1202    -0.2798 C.3     
  12 C12            4.0426     1.3927    -2.0066 C.3     
  13 C13            4.3845     0.1429    -2.7625 C.2     
  14 O14            5.1086     0.2133    -3.7328 O.2     
  15 C15            3.4900     2.4259    -2.9904 C.3     
  16 C16            2.2968     1.8296    -3.7398 C.3     
  17 C17            3.0400     3.6709    -2.2233 C.3     
  18 C18            3.5624    -3.8848    -6.3227 C.3     
  19 C19            2.0611    -3.9196    -6.4489 C.2     
  20 N20            1.2913    -3.9062    -5.3427 N.am    
  21 O21            1.5456    -3.9596    -7.5460 O.2     
  22 S22           -0.3514    -4.0684    -5.4751 S.o2    
  23 C23           -0.5897    -5.7438    -6.1283 C.3     
  24 C24            4.3539    -3.2616    -7.4742 C.3     
  25 C25            4.3715    -4.7779    -7.2654 C.3     
  26 C26           -2.0170    -6.1689    -6.4791 C.3     
  27 C27           -1.0097    -5.8778    -7.5934 C.3     
  28 O28           -0.8209    -3.9835    -4.1366 O.2     
  29 O29           -0.7224    -3.0978    -6.4445 O.2     
  30 C30            3.5726    -2.7299    -8.6480 C.2     
  31 C31            3.6596    -1.4640    -8.9734 C.2     
  32 C32            4.4711    -3.4879     1.1262 C.ar    
  33 C33            5.5416    -3.4761     2.0507 C.ar    
  34 C34            3.5434    -4.4918     1.2215 C.ar    
  35 C35            3.6777    -5.4718     2.2145 C.ar    
  36 N36            4.6849    -5.4544     3.0711 N.ar    
  37 C37            5.6175    -4.4975     3.0296 C.ar    
  38 C38            2.6702    -6.5491     2.3065 C.2     
  39 S39            1.2722    -6.7344     1.2504 S.3     
  40 C40            6.6839    -4.4902     3.9456 C.ar    
  41 C41            7.6305    -3.4923     3.8793 C.ar    
  42 C42            7.5426    -2.4873     2.9118 C.ar    
  43 C43            6.5221    -2.4742     2.0111 C.ar    
  44 Cl44           6.8064    -5.7313     5.1533 Cl      
  45 O45            8.6613    -3.4842     4.7645 O.3     
  46 C46            9.6110    -2.4232     4.6448 C.3     
  47 N47            2.6763    -7.5172     3.1779 N.2     
  48 C48            1.6985    -8.3879     3.1100 C.2     
  49 C49            0.7979    -8.1797     2.1408 C.2     
  50 C50            1.5954    -9.5516     4.0619 C.3     
  51 C51            0.6755    -9.1784     5.2261 C.3     
  52 C52            1.0202   -10.7633     3.3257 C.3     
  53 C53           10.6897    -2.5807     5.7184 C.3     
  54 N54           11.4504    -3.8128     5.4711 N.3     
  55 C55           12.6396    -3.8796     6.3328 C.3     
  56 C56            4.5807     2.8107    -3.9921 C.3     
  57 C57           13.3684    -5.2031     6.0859 C.3     
  58 O58           13.6986    -5.3081     4.6984 O.3     
  59 C59           12.5636    -5.2474     3.8303 C.3     
  60 C60           11.8267    -3.9243     4.0544 C.3     
  61 H61            2.1227     1.3264    -1.2971 H       
  62 H62            2.3731    -3.0306    -0.1899 H       
  63 H63            1.8851    -1.1911    -1.6931 H       
  64 H64            5.3655    -2.5008    -2.8152 H       
  65 H65            4.2573    -4.2426    -1.7452 H       
  66 H66            2.6746    -3.7909    -2.4587 H       
  67 H67            4.5974    -4.3920    -4.5395 H       
  68 H68            4.1761    -0.2353     0.1282 H       
  69 H69            2.4378    -0.1807     0.5236 H       
  70 H70            4.9531     1.7912    -1.5593 H       
  71 H71            1.5198     1.5555    -3.0262 H       
  72 H72            1.9031     2.5657    -4.4407 H       
  73 H73            2.6174     0.9427    -4.2863 H       
  74 H74            3.8900     4.0957    -1.6894 H       
  75 H75            2.6463     4.4070    -2.9242 H       
  76 H76            2.2629     3.3968    -1.5097 H       
  77 H77            1.6995    -3.8017    -4.4690 H       
  78 H78            0.0771    -6.5053    -5.7239 H       
  79 H79            5.2583    -2.7080    -7.2216 H       
  80 H80            5.2876    -5.2217    -6.8756 H       
  81 H81            3.8180    -5.3904    -7.9771 H       
  82 H82           -2.2890    -7.2101    -6.3060 H       
  83 H83           -2.8128    -5.4418    -6.3175 H       
  84 H84           -1.1428    -4.9591    -8.1648 H       
  85 H85           -0.6190    -6.7275    -8.1533 H       
  86 H86            2.9410    -3.3926    -9.2210 H       
  87 H87            4.2912    -0.8013    -8.4004 H       
  88 H88            3.0997    -1.0829    -9.8147 H       
  89 H89            2.7112    -4.5275     0.5340 H       
  90 H90            8.2952    -1.7135     2.8765 H       
  91 H91            6.4661    -1.6918     1.2687 H       
  92 H92           10.0726    -2.4584     3.6580 H       
  93 H93            9.1053    -1.4665     4.7754 H       
  94 H94           -0.0684    -8.7922     1.9389 H       
  95 H95            2.5860    -9.7961     4.4455 H       
  96 H96            1.0853    -8.3152     5.7506 H       
  97 H97           -0.3150    -8.9339     4.8425 H       
  98 H98            0.6010   -10.0201     5.9146 H       
  99 H99            1.6756   -11.0292     2.4963 H       
 100 H100           0.9457   -11.6050     4.0142 H       
 101 H101           0.0297   -10.5188     2.9421 H       
 102 H102          11.3636    -1.7246     5.6846 H       
 103 H103          10.2197    -2.6346     6.7004 H       
 104 H104          13.3052    -3.0485     6.0996 H       
 105 H105          12.3356    -3.8210     7.3779 H       
 106 H106           4.7802     1.9677    -4.6536 H       
 107 H107           4.2474     3.6645    -4.5820 H       
 108 H108           5.4914     3.0740    -3.4542 H       
 109 H109          14.2815    -5.2323     6.6805 H       
 110 H110          12.7216    -6.0333     6.3700 H       
 111 H111          12.8947    -5.3087     2.7936 H       
 112 H112          11.8935    -6.0789     4.0488 H       
 113 H113          10.9293    -3.8984     3.4363 H       
 114 H114          12.4793    -3.0940     3.7847 H       
@<TRIPOS>BOND
   1    1   11 1
   2    1   12 1
   3    1   61 1
   4    2    3 1
   5    2    7 1
   6    2    6 1
   7    2   62 1
   8    3    4 1
   9    3   11 1
  10    3   63 1
  11    4    5 1
  12    4   13 am
  13    5    6 1
  14    5    8 1
  15    5   64 1
  16    6   65 1
  17    6   66 1
  18    7   32 1
  19    8    9 2
  20    8   10 am
  21   10   18 1
  22   10   67 1
  23   11   68 1
  24   11   69 1
  25   12   13 1
  26   12   15 1
  27   12   70 1
  28   13   14 2
  29   15   16 1
  30   15   17 1
  31   15   56 1
  32   16   71 1
  33   16   72 1
  34   16   73 1
  35   17   74 1
  36   17   75 1
  37   17   76 1
  38   18   19 1
  39   18   24 1
  40   18   25 1
  41   19   20 am
  42   19   21 2
  43   20   22 am
  44   20   77 1
  45   22   23 1
  46   22   28 2
  47   22   29 2
  48   23   26 1
  49   23   27 1
  50   23   78 1
  51   24   25 1
  52   24   30 1
  53   24   79 1
  54   25   80 1
  55   25   81 1
  56   26   27 1
  57   26   82 1
  58   26   83 1
  59   27   84 1
  60   27   85 1
  61   30   31 2
  62   30   86 1
  63   31   87 1
  64   31   88 1
  65   32   33 ar
  66   32   34 ar
  67   33   37 ar
  68   33   43 ar
  69   34   35 ar
  70   34   89 1
  71   35   36 ar
  72   35   38 1
  73   36   37 ar
  74   37   40 ar
  75   38   47 2
  76   38   39 1
  77   39   49 1
  78   40   41 ar
  79   40   44 1
  80   41   42 ar
  81   41   45 1
  82   42   43 ar
  83   42   90 1
  84   43   91 1
  85   45   46 1
  86   46   53 1
  87   46   92 1
  88   46   93 1
  89   47   48 1
  90   48   49 2
  91   48   50 1
  92   49   94 1
  93   50   51 1
  94   50   52 1
  95   50   95 1
  96   51   96 1
  97   51   97 1
  98   51   98 1
  99   52   99 1
 100   52  100 1
 101   52  101 1
 102   53   54 1
 103   53  102 1
 104   53  103 1
 105   54   55 1
 106   54   60 1
 107   55   57 1
 108   55  104 1
 109   55  105 1
 110   56  106 1
 111   56  107 1
 112   56  108 1
 113   57   58 1
 114   57  109 1
 115   57  110 1
 116   58   59 1
 117   59   60 1
 118   59  111 1
 119   59  112 1
 120   60  113 1
 121   60  114 1

#	End of record

