#	Name: ASD00460001
#	Creating user name:	WinNT
#	Creation time:	15. 06. 2019 18:36

#	Modifying user name:	WinNT
#	Modification time:	15. 06. 2019 18:36

#	Program:	/corina/corina34_cracker 3.40 0067  02.08.2006

@<TRIPOS>MOLECULE
ASD00460001
  76   79    0    0    0
SMALL
NO_CHARGES


@<TRIPOS>ATOM
   1 C1            -0.0684     1.3733     0.4184 C.ar    
   2 C2            -0.1592    -0.0113     0.6189 C.ar    
   3 C3            -1.2951    -0.6588     0.2130 C.ar    
   4 C4            -2.3256     0.0664    -0.3846 C.ar    
   5 N5            -2.2245     1.3742    -0.5670 N.ar    
   6 C6            -1.1468     2.0460    -0.1859 C.ar    
   7 C7            -1.0726     3.5078    -0.4077 C.ar    
   8 C8             0.0052     4.0547    -1.1046 C.ar    
   9 C9             0.0724     5.4209    -1.3112 C.ar    
  10 C10           -0.9338     6.2496    -0.8242 C.ar    
  11 C11           -2.0093     5.7060    -0.1286 C.ar    
  12 C12           -2.0834     4.3396     0.0748 C.ar    
  13 N13           -3.4729    -0.5918    -0.7944 N.pl3   
  14 C14           -3.5970    -2.0383    -0.5988 C.3     
  15 C15           -2.9359    -2.7697    -1.7688 C.3     
  16 O16           -3.6526    -2.4882    -2.9726 O.3     
  17 C17            1.1338     2.1130     0.8390 C.2     
  18 N18            2.2117     1.4442     1.2942 N.am    
  19 C19            3.4075     2.1799     1.7126 C.3     
  20 C20            4.4761     1.1912     2.1829 C.3     
  21 O21            4.8955     0.3833     1.0813 O.3     
  22 C22            5.8480    -0.5535     1.3305 C.ar    
  23 C23            6.3016    -1.3725     0.3068 C.ar    
  24 C24            7.2699    -2.3240     0.5627 C.ar    
  25 C25            7.7868    -2.4604     1.8378 C.ar    
  26 C26            7.3360    -1.6456     2.8599 C.ar    
  27 C27            6.3724    -0.6884     2.6078 C.ar    
  28 O28            1.1229     5.9546    -1.9905 O.3     
  29 O29           -0.8656     7.5924    -1.0280 O.3     
  30 O30           -2.9911     6.5181     0.3472 O.3     
  31 C31           -5.0774    -2.4186    -0.5306 C.3     
  32 C32           -5.7002    -1.7961     0.6924 C.ar    
  33 C33           -4.0654     5.8927     1.0521 C.3     
  34 C34           -1.4722     8.0995    -2.2184 C.3     
  35 C35            2.1198     5.0457    -2.4617 C.3     
  36 O36            1.1538     3.3275     0.7756 O.2     
  37 C37           -6.2653    -0.5369     0.6153 C.ar    
  38 C38           -6.8365     0.0342     1.7372 C.ar    
  39 C39           -6.8430    -0.6542     2.9359 C.ar    
  40 C40           -6.2787    -1.9138     3.0128 C.ar    
  41 C41           -5.7113    -2.4866     1.8899 C.ar    
  42 H42            0.6498    -0.5555     1.0833 H       
  43 H43           -1.3924    -1.7251     0.3545 H       
  44 H44            0.7867     3.4120    -1.4821 H       
  45 H45           -2.9183     3.9181     0.6148 H       
  46 H46           -4.1945    -0.0950    -1.2109 H       
  47 H47           -3.1056    -2.3226     0.3317 H       
  48 H48           -1.9048    -2.4320    -1.8724 H       
  49 H49           -2.9495    -3.8432    -1.5805 H       
  50 H50           -3.2884    -2.9201    -3.7574 H       
  51 H51            2.1958     0.4756     1.3448 H       
  52 H52            3.7916     2.7573     0.8716 H       
  53 H53            3.1517     2.8544     2.5297 H       
  54 H54            5.3312     1.7405     2.5769 H       
  55 H55            4.0625     0.5536     2.9643 H       
  56 H56            5.8979    -1.2666    -0.6893 H       
  57 H57            7.6231    -2.9622    -0.2338 H       
  58 H58            8.5437    -3.2049     2.0359 H       
  59 H59            7.7409    -1.7546     3.8552 H       
  60 H60            6.0206    -0.0522     3.4065 H       
  61 H61           -5.5873    -2.0554    -1.4229 H       
  62 H62           -5.1718    -3.5031    -0.4743 H       
  63 H63           -4.5662     5.1819     0.3948 H       
  64 H64           -3.6720     5.3678     1.9226 H       
  65 H65           -4.7775     6.6515     1.3766 H       
  66 H66           -1.3464     9.1815    -2.2577 H       
  67 H67           -0.9979     7.6467    -3.0891 H       
  68 H68           -2.5349     7.8571    -2.2163 H       
  69 H69            1.6640     4.3282    -3.1440 H       
  70 H70            2.8989     5.6002    -2.9849 H       
  71 H71            2.5571     4.5154    -1.6157 H       
  72 H72           -6.2602     0.0009    -0.3212 H       
  73 H73           -7.2774     1.0182     1.6772 H       
  74 H74           -7.2886    -0.2077     3.8126 H       
  75 H75           -6.2834    -2.4514     3.9494 H       
  76 H76           -5.2704    -3.4707     1.9499 H       
@<TRIPOS>BOND
   1    1    2 ar
   2    1   17 1
   3    1    6 ar
   4    2    3 ar
   5    2   42 1
   6    3    4 ar
   7    3   43 1
   8    4    5 ar
   9    4   13 1
  10    5    6 ar
  11    6    7 1
  12    7    8 ar
  13    7   12 ar
  14    8    9 ar
  15    8   44 1
  16    9   10 ar
  17    9   28 1
  18   10   11 ar
  19   10   29 1
  20   11   12 ar
  21   11   30 1
  22   12   45 1
  23   13   14 1
  24   13   46 1
  25   14   15 1
  26   14   31 1
  27   14   47 1
  28   15   16 1
  29   15   48 1
  30   15   49 1
  31   16   50 1
  32   17   18 am
  33   17   36 2
  34   18   19 1
  35   18   51 1
  36   19   20 1
  37   19   52 1
  38   19   53 1
  39   20   21 1
  40   20   54 1
  41   20   55 1
  42   21   22 1
  43   22   23 ar
  44   22   27 ar
  45   23   24 ar
  46   23   56 1
  47   24   25 ar
  48   24   57 1
  49   25   26 ar
  50   25   58 1
  51   26   27 ar
  52   26   59 1
  53   27   60 1
  54   28   35 1
  55   29   34 1
  56   30   33 1
  57   31   32 1
  58   31   61 1
  59   31   62 1
  60   32   37 ar
  61   32   41 ar
  62   33   63 1
  63   33   64 1
  64   33   65 1
  65   34   66 1
  66   34   67 1
  67   34   68 1
  68   35   69 1
  69   35   70 1
  70   35   71 1
  71   37   38 ar
  72   37   72 1
  73   38   39 ar
  74   38   73 1
  75   39   40 ar
  76   39   74 1
  77   40   41 ar
  78   40   75 1
  79   41   76 1

#	End of record

