#	Name: ASD01420458
#	Creating user name:	WinNT
#	Creation time:	15. 06. 2019 19:20

#	Modifying user name:	WinNT
#	Modification time:	15. 06. 2019 19:20

#	Program:	/corina/corina34_cracker 3.40 0067  02.08.2006

@<TRIPOS>MOLECULE
ASD01420458
  37   39    0    0    0
SMALL
NO_CHARGES


@<TRIPOS>ATOM
   1 C1            -0.0180     1.4761     0.0102 C.3     
   2 N2             0.0021    -0.0041     0.0020 N.3     
   3 C3             1.2729    -0.3390    -0.6794 C.3     
   4 C4             2.1994     0.8256    -0.4114 C.ar    
   5 C5             3.5695     0.9481    -0.5100 C.ar    
   6 C6             4.1842     2.1616    -0.1963 C.ar    
   7 C7             3.4056     3.2450     0.2161 C.ar    
   8 C8             2.0365     3.1097     0.3108 C.ar    
   9 C9             1.4323     1.9048    -0.0014 C.ar    
  10 C10            5.6515     2.2988    -0.2997 C.2     
  11 O11            6.3260     1.3544    -0.6583 O.2     
  12 O12            6.2414     3.4712     0.0038 O.3     
  13 C13           -1.1486    -0.5421    -0.7358 C.3     
  14 C14           -0.9814    -0.2553    -2.2058 C.ar    
  15 C15           -0.3298    -1.1648    -3.0177 C.ar    
  16 C16           -0.1764    -0.9017    -4.3661 C.ar    
  17 C17           -0.6751     0.2706    -4.9027 C.ar    
  18 C18           -1.3276     1.1796    -4.0909 C.ar    
  19 C19           -1.4847     0.9145    -2.7434 C.ar    
  20 C20            7.6867     3.5336    -0.1205 C.3     
  21 H21           -0.5283     1.8506    -0.8772 H       
  22 H22           -0.5113     1.8410     0.9111 H       
  23 H23            1.6917    -1.2563    -0.2656 H       
  24 H24            1.1077    -0.4497    -1.7511 H       
  25 H25            4.1661     0.1063    -0.8292 H       
  26 H26            3.8746     4.1868     0.4600 H       
  27 H27            1.4338     3.9471     0.6300 H       
  28 H28           -1.2085    -1.6193    -0.5803 H       
  29 H29           -2.0635    -0.0716    -0.3756 H       
  30 H30            0.0599    -2.0806    -2.5984 H       
  31 H31            0.3334    -1.6119    -5.0002 H       
  32 H32           -0.5546     0.4765    -5.9560 H       
  33 H33           -1.7169     2.0956    -4.5101 H       
  34 H34           -1.9978     1.6230    -2.1099 H       
  35 H35            7.9724     3.3200    -1.1505 H       
  36 H36            8.0322     4.5305     0.1531 H       
  37 H37            8.1405     2.7971     0.5426 H       
@<TRIPOS>BOND
   1    1    2 1
   2    1    9 1
   3    1   21 1
   4    1   22 1
   5    2    3 1
   6    2   13 1
   7    3    4 1
   8    3   23 1
   9    3   24 1
  10    4    5 ar
  11    4    9 ar
  12    5    6 ar
  13    5   25 1
  14    6    7 ar
  15    6   10 1
  16    7    8 ar
  17    7   26 1
  18    8    9 ar
  19    8   27 1
  20   10   11 2
  21   10   12 1
  22   12   20 1
  23   13   14 1
  24   13   28 1
  25   13   29 1
  26   14   15 ar
  27   14   19 ar
  28   15   16 ar
  29   15   30 1
  30   16   17 ar
  31   16   31 1
  32   17   18 ar
  33   17   32 1
  34   18   19 ar
  35   18   33 1
  36   19   34 1
  37   20   35 1
  38   20   36 1
  39   20   37 1

#	End of record

