#	Name: ASD01028710
#	Creating user name:	WinNT
#	Creation time:	15. 06. 2019 18:58

#	Modifying user name:	WinNT
#	Modification time:	15. 06. 2019 18:58

#	Program:	/corina/corina34_cracker 3.40 0067  02.08.2006

@<TRIPOS>MOLECULE
ASD01028710
  42   45    0    0    0
SMALL
NO_CHARGES


@<TRIPOS>ATOM
   1 C1            -0.0166     1.3702     0.0096 C.2     
   2 N2             0.0021    -0.0041     0.0020 N.pl3   
   3 N3             1.2205    -0.6858    -0.0126 N.2     
   4 C4             2.3504    -0.0275    -0.0192 C.2     
   5 C5             2.3690     1.3750    -0.0113 C.2     
   6 C6             1.2013     2.0743     0.0017 C.2     
   7 N7            -1.2880     1.7361     0.0184 N.2     
   8 N8            -2.0322     0.6855     0.0167 N.2     
   9 C9            -1.2907    -0.3943     0.0115 C.2     
  10 Cl10           3.8497    -0.9025    -0.0373 Cl      
  11 C11           -1.7904    -1.8161     0.0079 C.3     
  12 C12           -3.2974    -1.8189     0.0216 C.ar    
  13 C13           -3.9958    -1.8133    -1.1839 C.ar    
  14 C14           -5.3567    -1.8156    -1.2073 C.ar    
  15 C15           -6.0753    -1.8243     0.0007 C.ar    
  16 C16           -5.3627    -1.8305     1.2259 C.ar    
  17 C17           -3.9585    -1.8326     1.2118 C.ar    
  18 N18           -7.4122    -1.8263     0.0068 N.ar    
  19 C19           -8.0898    -1.8340     1.1281 C.ar    
  20 C20           -7.4508    -1.8400     2.3721 C.ar    
  21 C21           -6.0822    -1.8393     2.4349 C.ar    
  22 F22           -1.3333    -2.4681    -1.1423 F       
  23 O23           -8.1854    -1.8466     3.5155 O.3     
  24 C24           -9.6072    -1.8470     3.3732 C.3     
  25 F25           -1.3125    -2.4812     1.1421 F       
  26 C26          -10.2584    -1.8548     4.7576 C.3     
  27 O27           -9.9469    -0.6371     5.4374 O.3     
  28 C28          -10.5101    -0.5422     6.7473 C.3     
  29 H29            3.3121     1.9013    -0.0166 H       
  30 H30            1.2097     3.1543     0.0074 H       
  31 H31           -3.4485    -1.8066    -2.1149 H       
  32 H32           -5.8824    -1.8105    -2.1507 H       
  33 H33           -3.4061    -1.8377     2.1399 H       
  34 H34           -9.1692    -1.8353     1.0909 H       
  35 H35           -5.5700    -1.8442     3.3857 H       
  36 H36           -9.9183    -0.9544     2.8304 H       
  37 H37           -9.9169    -2.7343     2.8210 H       
  38 H38          -11.3394    -1.9447     4.6502 H       
  39 H39           -9.8790    -2.6994     5.3328 H       
  40 H40          -11.5963    -0.6048     6.6812 H       
  41 H41          -10.1359    -1.3595     7.3638 H       
  42 H42          -10.2277     0.4102     7.1961 H       
@<TRIPOS>BOND
   1    1    2 1
   2    1    6 1
   3    1    7 2
   4    2    3 1
   5    2    9 1
   6    3    4 2
   7    4    5 1
   8    4   10 1
   9    5    6 2
  10    5   29 1
  11    6   30 1
  12    7    8 1
  13    8    9 2
  14    9   11 1
  15   11   12 1
  16   11   22 1
  17   11   25 1
  18   12   13 ar
  19   12   17 ar
  20   13   14 ar
  21   13   31 1
  22   14   15 ar
  23   14   32 1
  24   15   16 ar
  25   15   18 ar
  26   16   17 ar
  27   16   21 ar
  28   17   33 1
  29   18   19 ar
  30   19   20 ar
  31   19   34 1
  32   20   21 ar
  33   20   23 1
  34   21   35 1
  35   23   24 1
  36   24   26 1
  37   24   36 1
  38   24   37 1
  39   26   27 1
  40   26   38 1
  41   26   39 1
  42   27   28 1
  43   28   40 1
  44   28   41 1
  45   28   42 1

#	End of record

