#	Name: ASD01420164
#	Creating user name:	WinNT
#	Creation time:	15. 06. 2019 19:20

#	Modifying user name:	WinNT
#	Modification time:	15. 06. 2019 19:20

#	Program:	/corina/corina34_cracker 3.40 0067  02.08.2006

@<TRIPOS>MOLECULE
ASD01420164
  42   44    0    0    0
SMALL
NO_CHARGES


@<TRIPOS>ATOM
   1 C1            -0.0144     1.2120     0.0087 C.2     
   2 O2             0.3002     0.3312    -0.7687 O.2     
   3 C3             0.6624     2.7155     1.9066 C.3     
   4 N4             0.8503     1.6087     0.9634 N.am    
   5 C5             2.1586     1.0157     1.2578 C.3     
   6 C6             2.7644     1.7871     2.4031 C.ar    
   7 C7             3.9727     1.6409     3.0611 C.ar    
   8 C8             4.3041     2.4941     4.1024 C.ar    
   9 C9             3.4212     3.4946     4.4829 C.ar    
  10 C10            2.2167     3.6369     3.8236 C.ar    
  11 C11            1.8873     2.7837     2.7835 C.ar    
  12 O12            5.4906     2.3505     4.7493 O.3     
  13 C13           -1.3382     1.8494    -0.0969 C.ar    
  14 C14           -2.4902     1.0611    -0.2412 C.ar    
  15 C15           -3.7301     1.6681    -0.3393 C.ar    
  16 C16           -3.8316     3.0510    -0.2953 C.ar    
  17 C17           -2.6903     3.8339    -0.1523 C.ar    
  18 C18           -1.4526     3.2420    -0.0480 C.ar    
  19 C19           -2.8108     5.3353    -0.1057 C.3     
  20 C20           -2.2585     5.8502     1.2250 C.3     
  21 C21           -2.0137     5.9471    -1.2595 C.3     
  22 O22           -5.0491     3.6427    -0.3927 O.3     
  23 O23           -2.3888    -0.2910    -0.2848 O.3     
  24 H24            0.5470     3.6513     1.3598 H       
  25 H25           -0.2207     2.5332     2.5190 H       
  26 H26            2.0351    -0.0297     1.5408 H       
  27 H27            2.8028     1.0885     0.3815 H       
  28 H28            4.6582     0.8612     2.7635 H       
  29 H29            3.6758     4.1608     5.2938 H       
  30 H30            1.5295     4.4156     4.1196 H       
  31 H31            6.2140     2.8623     4.3623 H       
  32 H32           -4.6191     1.0650    -0.4504 H       
  33 H33           -0.5695     3.8530     0.0674 H       
  34 H34           -3.8592     5.6187    -0.1980 H       
  35 H35           -1.2101     5.5668     1.3173 H       
  36 H36           -2.3457     6.9362     1.2588 H       
  37 H37           -2.8264     5.4144     2.0471 H       
  38 H38           -0.9652     5.6637    -1.1672 H       
  39 H39           -2.4071     5.5803    -2.2076 H       
  40 H40           -2.1008     7.0331    -1.2258 H       
  41 H41           -5.4888     3.7799     0.4575 H       
  42 H42           -2.4456    -0.7178     0.5810 H       
@<TRIPOS>BOND
   1    1    2 2
   2    1    4 am
   3    1   13 1
   4    3    4 1
   5    3   11 1
   6    3   24 1
   7    3   25 1
   8    4    5 1
   9    5    6 1
  10    5   26 1
  11    5   27 1
  12    6    7 ar
  13    6   11 ar
  14    7    8 ar
  15    7   28 1
  16    8    9 ar
  17    8   12 1
  18    9   10 ar
  19    9   29 1
  20   10   11 ar
  21   10   30 1
  22   12   31 1
  23   13   14 ar
  24   13   18 ar
  25   14   15 ar
  26   14   23 1
  27   15   16 ar
  28   15   32 1
  29   16   17 ar
  30   16   22 1
  31   17   18 ar
  32   17   19 1
  33   18   33 1
  34   19   20 1
  35   19   21 1
  36   19   34 1
  37   20   35 1
  38   20   36 1
  39   20   37 1
  40   21   38 1
  41   21   39 1
  42   21   40 1
  43   22   41 1
  44   23   42 1

#	End of record

