#	Name: ASD01916704
#	Creating user name:	WinNT
#	Creation time:	15. 06. 2019 20:07

#	Modifying user name:	WinNT
#	Modification time:	15. 06. 2019 20:07

#	Program:	/corina/corina34_cracker 3.40 0067  02.08.2006

@<TRIPOS>MOLECULE
ASD01916704
  31   33    0    0    0
SMALL
NO_CHARGES


@<TRIPOS>ATOM
   1 O1            -0.0161     1.3381     0.0094 O.3     
   2 C2             0.0021    -0.0041     0.0020 C.2     
   3 N3             1.2264    -0.4381    -0.0120 N.2     
   4 C4             2.0701     0.6294    -0.0143 C.ar    
   5 C5             1.2618     1.7767    -0.0004 C.ar    
   6 C6             1.8478     3.0330     0.0003 C.ar    
   7 C7             3.2223     3.1501    -0.0126 C.ar    
   8 C8             4.0244     2.0189    -0.0268 C.ar    
   9 C9             3.4591     0.7631    -0.0276 C.ar    
  10 C10           -1.2228    -0.8820     0.0098 C.3     
  11 C11           -1.6226    -1.1868     1.4548 C.3     
  12 C12           -2.8190    -2.0444     1.4624 C.1     
  13 C13           -3.7732    -2.7283     1.4684 C.1     
  14 C14           -4.9371    -3.5625     1.4758 C.ar    
  15 C15           -5.4870    -3.9721     2.6912 C.ar    
  16 C16           -6.6112    -4.7776     2.6830 C.ar    
  17 C17           -7.1519    -5.1497     1.4575 C.ar    
  18 C18           -6.5543    -4.7066     0.2891 C.ar    
  19 N19           -5.4870    -3.9354     0.3261 N.ar    
  20 F20           -8.2493    -5.9360     1.4066 F       
  21 H21            1.2295     3.9185     0.0106 H       
  22 H22            3.6769     4.1298    -0.0120 H       
  23 H23            5.0993     2.1235    -0.0375 H       
  24 H24            4.0881    -0.1147    -0.0379 H       
  25 H25           -2.0417    -0.3676    -0.4930 H       
  26 H26           -1.0049    -1.8143    -0.5113 H       
  27 H27           -0.8037    -1.7013     1.9576 H       
  28 H28           -1.8405    -0.2546     1.9759 H       
  29 H29           -5.0407    -3.6645     3.6253 H       
  30 H30           -7.0587    -5.1105     3.6078 H       
  31 H31           -6.9715    -4.9935    -0.6649 H       
@<TRIPOS>BOND
   1    1    2 1
   2    1    5 1
   3    2    3 2
   4    2   10 1
   5    3    4 1
   6    4    5 ar
   7    4    9 ar
   8    5    6 ar
   9    6    7 ar
  10    6   21 1
  11    7    8 ar
  12    7   22 1
  13    8    9 ar
  14    8   23 1
  15    9   24 1
  16   10   11 1
  17   10   25 1
  18   10   26 1
  19   11   12 1
  20   11   27 1
  21   11   28 1
  22   12   13 3
  23   13   14 1
  24   14   15 ar
  25   14   19 ar
  26   15   16 ar
  27   15   29 1
  28   16   17 ar
  29   16   30 1
  30   17   18 ar
  31   17   20 1
  32   18   19 ar
  33   18   31 1

#	End of record

