#	Name: ASD05313286
#	Creating user name:	WinNT
#	Creation time:	15. 06. 2019 20:59

#	Modifying user name:	WinNT
#	Modification time:	15. 06. 2019 20:59

#	Program:	/corina/corina34_cracker 3.40 0067  02.08.2006

@<TRIPOS>MOLECULE
ASD05313286
  30   32    0    0    0
SMALL
NO_CHARGES


@<TRIPOS>ATOM
   1 C1            -0.0738     0.8196     1.0241 C.2     
   2 C2             0.1127    -0.6187     0.5961 C.3     
   3 N3             0.9284     1.7316     1.0504 N.pl3   
   4 N4             1.4553    -0.7199    -0.0050 N.am    
   5 C5             2.5695    -0.0393     0.6724 C.3     
   6 C6             2.3162     1.4724     0.6619 C.3     
   7 N7            -1.1710     1.3908     1.4236 N.2     
   8 C8            -0.9169     2.6764     1.7206 C.2     
   9 C9             0.3944     2.9068     1.4947 C.2     
  10 C10            1.6558    -1.4161    -1.1415 C.2     
  11 O11            2.7480    -1.4067    -1.6754 O.2     
  12 C12            0.5486    -2.1904    -1.7384 C.ar    
  13 C13            0.3181    -2.1379    -3.1159 C.ar    
  14 C14           -0.7186    -2.8641    -3.6669 C.ar    
  15 C15           -1.5283    -3.6429    -2.8576 C.ar    
  16 C16           -1.3043    -3.6986    -1.4916 C.ar    
  17 C17           -0.2687    -2.9826    -0.9296 C.ar    
  18 Cl18          -2.8304    -4.5530    -3.5576 Cl      
  19 Cl19           1.3325    -1.1613    -4.1313 Cl      
  20 Cl20           1.2384     4.4057     1.7284 Cl      
  21 Cl21          -2.0717     3.8372     2.2974 Cl      
  22 H22            0.0427    -1.2764     1.4625 H       
  23 H23           -0.6451    -0.8890    -0.1392 H       
  24 H24            2.6386    -0.3902     1.7021 H       
  25 H25            3.5009    -0.2562     0.1493 H       
  26 H26            2.4932     1.8646    -0.3396 H       
  27 H27            2.9889     1.9588     1.3683 H       
  28 H28           -0.8986    -2.8246    -4.7311 H       
  29 H29           -1.9396    -4.3080    -0.8660 H       
  30 H30           -0.0926    -3.0311     0.1348 H       
@<TRIPOS>BOND
   1    1    2 1
   2    1    3 1
   3    1    7 2
   4    2    4 1
   5    2   22 1
   6    2   23 1
   7    3    6 1
   8    3    9 1
   9    4    5 1
  10    4   10 am
  11    5    6 1
  12    5   24 1
  13    5   25 1
  14    6   26 1
  15    6   27 1
  16    7    8 1
  17    8    9 2
  18    8   21 1
  19    9   20 1
  20   10   11 2
  21   10   12 1
  22   12   13 ar
  23   12   17 ar
  24   13   14 ar
  25   13   19 1
  26   14   15 ar
  27   14   28 1
  28   15   16 ar
  29   15   18 1
  30   16   17 ar
  31   16   29 1
  32   17   30 1

#	End of record

