#	Name: ASD01884488
#	Creating user name:	WinNT
#	Creation time:	15. 06. 2019 19:48

#	Modifying user name:	WinNT
#	Modification time:	15. 06. 2019 19:48

#	Program:	/corina/corina34_cracker 3.40 0067  02.08.2006

@<TRIPOS>MOLECULE
ASD01884488
  35   37    0    0    0
SMALL
NO_CHARGES


@<TRIPOS>ATOM
   1 C1            -0.0164     1.3570     0.0095 C.2     
   2 C2             0.0021    -0.0041     0.0020 C.2     
   3 C3             1.2456    -0.6757    -0.0135 C.2     
   4 C4             2.4119     0.0557    -0.0207 C.2     
   5 N5             2.3714     1.4118    -0.0130 N.am    
   6 C6             1.1965     2.0678     0.0017 C.2     
   7 C7             3.6235     2.1723    -0.0209 C.3     
   8 O8             1.1838     3.2883     0.0080 O.2     
   9 C9             4.0393     2.4407    -1.4443 C.ar    
  10 C10            3.6085     3.5871    -2.0855 C.ar    
  11 C11            3.9895     3.8338    -3.3910 C.ar    
  12 C12            4.8022     2.9331    -4.0561 C.ar    
  13 C13            5.2330     1.7859    -3.4138 C.ar    
  14 C14            4.8560     1.5431    -2.1065 C.ar    
  15 Cl15           5.2807     3.2420    -5.6960 Cl      
  16 C16            1.2935    -2.1542    -0.0214 C.2     
  17 S17            1.9208    -3.1430    -1.3338 S.3     
  18 C18            0.8686    -2.9517     0.9781 C.2     
  19 C19            1.0170    -4.3036     0.7400 C.2     
  20 C20            1.5592    -4.6138    -0.4403 C.2     
  21 C21            1.8226    -6.0137    -0.9321 C.3     
  22 H22           -0.9570     1.8876     0.0168 H       
  23 H23           -0.9217    -0.5636     0.0082 H       
  24 H24            3.3646    -0.4529    -0.0321 H       
  25 H25            3.4770     3.1188     0.4995 H       
  26 H26            4.4009     1.5974     0.4825 H       
  27 H27            2.9737     4.2900    -1.5663 H       
  28 H28            3.6525     4.7293    -3.8919 H       
  29 H29            5.8675     1.0824    -3.9325 H       
  30 H30            5.1923     0.6476    -1.6050 H       
  31 H31            0.4459    -2.5641     1.8932 H       
  32 H32            0.7184    -5.0547     1.4562 H       
  33 H33            0.9499    -6.3789    -1.4735 H       
  34 H34            2.6866    -6.0088    -1.5966 H       
  35 H35            2.0219    -6.6661    -0.0818 H       
@<TRIPOS>BOND
   1    1    2 2
   2    1    6 1
   3    1   22 1
   4    2    3 1
   5    2   23 1
   6    3    4 2
   7    3   16 1
   8    4    5 1
   9    4   24 1
  10    5    6 am
  11    5    7 1
  12    6    8 2
  13    7    9 1
  14    7   25 1
  15    7   26 1
  16    9   10 ar
  17    9   14 ar
  18   10   11 ar
  19   10   27 1
  20   11   12 ar
  21   11   28 1
  22   12   13 ar
  23   12   15 1
  24   13   14 ar
  25   13   29 1
  26   14   30 1
  27   16   17 1
  28   16   18 2
  29   17   20 1
  30   18   19 1
  31   18   31 1
  32   19   20 2
  33   19   32 1
  34   20   21 1
  35   21   33 1
  36   21   34 1
  37   21   35 1

#	End of record

