#	Name: ASD03331473
#	Creating user name:	WinNT
#	Creation time:	15. 06. 2019 20:39

#	Modifying user name:	WinNT
#	Modification time:	15. 06. 2019 20:39

#	Program:	/corina/corina34_cracker 3.40 0067  02.08.2006

@<TRIPOS>MOLECULE
ASD03331473
  63   65    0    0    0
SMALL
NO_CHARGES


@<TRIPOS>ATOM
   1 C1             0.5071     1.6292    -3.3216 C.ar    
   2 C2             0.4461     0.4799    -2.3924 C.2     
   3 N3            -0.5658     0.2128    -1.5259 N.pl3   
   4 C4            -0.2383    -0.9278    -0.8522 C.2     
   5 C5             0.9656    -1.3386    -1.3216 C.2     
   6 N6             1.3592    -0.4577    -2.2702 N.2     
   7 C7             1.7087    -2.5328    -0.8822 C.2     
   8 N8             2.9020    -2.8256    -1.4361 N.am    
   9 C9            -0.2451     2.7761    -3.0663 C.ar    
  10 O10            1.2452    -3.2542    -0.0197 O.2     
  11 C11            3.6408    -4.0129    -0.9992 C.3     
  12 C12            3.1459    -5.2355    -1.7746 C.3     
  13 C13            5.1115    -3.8138    -1.2606 C.2     
  14 C14            3.2689    -4.9709    -3.2765 C.3     
  15 C15           -1.8081     0.9563    -1.2990 C.3     
  16 C16           -2.7821     0.0418    -0.5449 C.3     
  17 N17           -2.1098    -0.5495     0.6204 N.3     
  18 C18           -1.1096    -1.5506     0.2078 C.3     
  19 N19            6.0231    -4.3500    -0.4251 N.am    
  20 C20            3.9925    -6.4537    -1.4004 C.3     
  21 C21            1.6815    -5.5044    -1.4223 C.3     
  22 C22           -0.1844     3.8464    -3.9374 C.ar    
  23 C23            0.6226     3.7807    -5.0645 C.ar    
  24 C24            1.3703     2.6429    -5.3210 C.ar    
  25 C25            1.3214     1.5718    -4.4533 C.ar    
  26 F26            0.6790     4.8293    -5.9144 F       
  27 O27            5.4749    -3.1710    -2.2228 O.2     
  28 C28            5.5898    -5.2197     0.6712 C.3     
  29 F29           -0.9119     4.9581    -3.6923 F       
  30 C30           -3.0853    -1.1325     1.5512 C.3     
  31 C31           -3.9875     0.8592    -0.0761 C.3     
  32 C32            7.4474    -4.0630    -0.6134 C.3     
  33 H33            3.2717    -2.2503    -2.1240 H       
  34 H34           -0.8737     2.8269    -2.1896 H       
  35 H35            3.4793    -4.1693     0.0674 H       
  36 H36            4.3121    -4.7793    -3.5275 H       
  37 H37            2.9163    -5.8419    -3.8289 H       
  38 H38            2.6657    -4.1030    -3.5431 H       
  39 H39           -1.6013     1.8449    -0.7026 H       
  40 H40           -2.2425     1.2475    -2.2554 H       
  41 H41           -3.1211    -0.7529    -1.2095 H       
  42 H42           -1.6126    -2.4286    -0.1977 H       
  43 H43           -0.4999    -1.8373     1.0646 H       
  44 H44            3.8586    -6.6780    -0.3421 H       
  45 H45            3.6788    -7.3110    -1.9960 H       
  46 H46            5.0432    -6.2401    -1.5963 H       
  47 H47            1.0784    -4.6365    -1.6889 H       
  48 H48            1.3290    -6.3754    -1.9747 H       
  49 H49            1.5939    -5.6929    -0.3523 H       
  50 H50            1.9964     2.5964    -6.1998 H       
  51 H51            1.9051     0.6857    -4.6550 H       
  52 H52            5.5890    -6.2563     0.3340 H       
  53 H53            6.2741    -5.1119     1.5127 H       
  54 H54            4.5838    -4.9382     0.9825 H       
  55 H55           -3.6524    -1.9119     1.0422 H       
  56 H56           -2.5611    -1.5630     2.4044 H       
  57 H57           -3.7664    -0.3552     1.8978 H       
  58 H58           -4.4907     1.2930    -0.9402 H       
  59 H59           -4.6802     0.2103     0.4599 H       
  60 H60           -3.6504     1.6566     0.5862 H       
  61 H61            7.5748    -3.4036    -1.4718 H       
  62 H62            7.8413    -3.5774     0.2795 H       
  63 H63            7.9857    -4.9946    -0.7878 H       
@<TRIPOS>BOND
   1    1    2 1
   2    1    9 ar
   3    1   25 ar
   4    2    3 1
   5    2    6 2
   6    3    4 1
   7    3   15 1
   8    4    5 2
   9    4   18 1
  10    5    6 1
  11    5    7 1
  12    7    8 am
  13    7   10 2
  14    8   11 1
  15    8   33 1
  16    9   22 ar
  17    9   34 1
  18   11   12 1
  19   11   13 1
  20   11   35 1
  21   12   14 1
  22   12   20 1
  23   12   21 1
  24   13   19 am
  25   13   27 2
  26   14   36 1
  27   14   37 1
  28   14   38 1
  29   15   16 1
  30   15   39 1
  31   15   40 1
  32   16   17 1
  33   16   31 1
  34   16   41 1
  35   17   18 1
  36   17   30 1
  37   18   42 1
  38   18   43 1
  39   19   32 1
  40   19   28 1
  41   20   44 1
  42   20   45 1
  43   20   46 1
  44   21   47 1
  45   21   48 1
  46   21   49 1
  47   22   23 ar
  48   22   29 1
  49   23   24 ar
  50   23   26 1
  51   24   25 ar
  52   24   50 1
  53   25   51 1
  54   28   52 1
  55   28   53 1
  56   28   54 1
  57   30   55 1
  58   30   56 1
  59   30   57 1
  60   31   58 1
  61   31   59 1
  62   31   60 1
  63   32   61 1
  64   32   62 1
  65   32   63 1

#	End of record

