#	Name: ASD01814731
#	Creating user name:	WinNT
#	Creation time:	15. 06. 2019 19:32

#	Modifying user name:	WinNT
#	Modification time:	15. 06. 2019 19:32

#	Program:	/corina/corina34_cracker 3.40 0067  02.08.2006

@<TRIPOS>MOLECULE
ASD01814731
  51   54    0    0    0
SMALL
NO_CHARGES


@<TRIPOS>ATOM
   1 C1            -0.0178     1.4608     0.0101 C.3     
   2 N2             0.0021    -0.0041     0.0020 N.pl3   
   3 C3             0.0080    -0.7821    -1.1223 C.2     
   4 C4             0.0279    -2.0824    -0.7819 C.2     
   5 C5             0.0353    -2.1397     0.6785 C.ar    
   6 C6             0.0538    -3.1780     1.6135 C.ar    
   7 C7             0.0727    -4.6181     1.1699 C.3     
   8 C8             1.4932    -5.0414     0.8981 C.ar    
   9 C9             2.0429    -4.8841    -0.3652 C.ar    
  10 C10            3.3533    -5.2870    -0.5697 C.ar    
  11 C11            4.0644    -5.8288     0.4862 C.ar    
  12 Cl12           5.7066    -6.3370     0.2442 Cl      
  13 N13            3.5082    -5.9633     1.6755 N.ar    
  14 C14            2.2658    -5.5858     1.9063 C.ar    
  15 C15            0.0549    -2.8519     2.9446 C.ar    
  16 C16            0.0376    -1.5066     3.3227 C.ar    
  17 N17            0.0197    -0.5361     2.4195 N.ar    
  18 C18            0.0235    -0.7990     1.1245 C.ar    
  19 C19            0.0387    -1.1581     4.7605 C.2     
  20 O20            0.0546    -2.0379     5.5991 O.2     
  21 N21            0.0222     0.1349     5.1406 N.am    
  22 C22            0.0233     0.4799     6.5643 C.3     
  23 H23           -0.5534    -0.2608     7.1182 H       
  24 C24            1.4624     0.4981     7.0836 C.3     
  25 C25            1.4636     0.8585     8.5705 C.3     
  26 C26            0.8353     2.2405     8.7608 C.3     
  27 C27           -0.6037     2.2223     8.2416 C.3     
  28 C28           -0.6049     1.8619     6.7547 C.3     
  29 H29           -0.0282     2.6027     6.2008 H       
  30 O30           -1.9490     1.8450     6.2697 O.3     
  31 H31            1.0048     1.8381     0.0023 H       
  32 H32           -0.5450     1.8219    -0.8730 H       
  33 H33           -0.5280     1.8123     0.9069 H       
  34 H34           -0.0025    -0.4071    -2.1351 H       
  35 H35            0.0362    -2.9242    -1.4584 H       
  36 H36           -0.3496    -5.2456     1.9548 H       
  37 H37           -0.5189    -4.7260     0.2608 H       
  38 H38            1.4635    -4.4581    -1.1709 H       
  39 H39            3.8133    -5.1795    -1.5409 H       
  40 H40            1.8458    -5.7076     2.8938 H       
  41 H41            0.0686    -3.6283     3.6953 H       
  42 H42            0.0095     0.8369     4.4714 H       
  43 H43            1.9100    -0.4865     6.9480 H       
  44 H44            2.0392     1.2388     6.5297 H       
  45 H45            0.8869     0.1177     9.1244 H       
  46 H46            2.4889     0.8714     8.9404 H       
  47 H47            0.8362     2.4972     9.8201 H       
  48 H48            1.4121     2.9812     8.2070 H       
  49 H49           -1.1805     1.4816     8.7955 H       
  50 H50           -1.0514     3.2069     8.3772 H       
  51 H51           -2.4100     2.6904     6.3588 H       
@<TRIPOS>BOND
   1    1    2 1
   2    1   31 1
   3    1   32 1
   4    1   33 1
   5    2   18 1
   6    2    3 1
   7    3    4 2
   8    3   34 1
   9    4    5 1
  10    4   35 1
  11    5   18 ar
  12    5    6 ar
  13    6    7 1
  14    6   15 ar
  15    7    8 1
  16    7   36 1
  17    7   37 1
  18    8   14 ar
  19    8    9 ar
  20    9   10 ar
  21    9   38 1
  22   10   11 ar
  23   10   39 1
  24   11   12 1
  25   11   13 ar
  26   13   14 ar
  27   14   40 1
  28   15   16 ar
  29   15   41 1
  30   16   17 ar
  31   16   19 1
  32   17   18 ar
  33   19   20 2
  34   19   21 am
  35   21   22 1
  36   21   42 1
  37   22   23 1
  38   22   28 1
  39   22   24 1
  40   24   25 1
  41   24   43 1
  42   24   44 1
  43   25   26 1
  44   25   45 1
  45   25   46 1
  46   26   27 1
  47   26   47 1
  48   26   48 1
  49   27   28 1
  50   27   49 1
  51   27   50 1
  52   28   29 1
  53   28   30 1
  54   30   51 1

#	End of record

