#	Name: ASD04590819
#	Creating user name:	WinNT
#	Creation time:	15. 06. 2019 20:51

#	Modifying user name:	WinNT
#	Modification time:	15. 06. 2019 20:51

#	Program:	/corina/corina34_cracker 3.40 0067  02.08.2006

@<TRIPOS>MOLECULE
ASD04590819
  53   58    0    0    0
SMALL
NO_CHARGES


@<TRIPOS>ATOM
   1 N1            -0.0170     1.3231    -0.0115 N.ar    
   2 C2             0.0017    -0.0035    -0.0050 C.ar    
   3 N3             1.1297    -0.6949    -0.0118 N.ar    
   4 C4             2.3049    -0.0730    -0.0260 C.ar    
   5 C5             2.3189     1.3364    -0.0337 C.ar    
   6 C6             1.1072     2.0201    -0.0257 C.ar    
   7 N7             3.6030    -0.5197    -0.0357 N.pl3   
   8 C8             4.4822     0.5492    -0.0496 C.ar    
   9 C9             3.7312     1.7383    -0.0490 C.ar    
  10 C10            5.8680     0.6414    -0.0637 C.ar    
  11 N11            6.4613     1.8176    -0.0761 N.ar    
  12 C12            5.7851     2.9528    -0.0759 C.ar    
  13 C13            4.4065     2.9582    -0.0622 C.ar    
  14 N14           -1.2023    -0.6889     0.0098 N.pl3   
  15 C15           -2.3975     0.0090     0.1299 C.ar    
  16 N16           -2.3828     1.3205     0.3310 N.ar    
  17 N17           -3.4611     2.0070     0.4476 N.ar    
  18 C18           -4.6653     1.4478     0.3742 C.ar    
  19 C19           -4.7789     0.0649     0.1631 C.ar    
  20 C20           -3.6147    -0.6685     0.0331 C.ar    
  21 C21           -5.8738     2.2754     0.5143 C.2     
  22 C22           -7.1013     1.7141     0.4409 C.2     
  23 C23           -8.2820     2.5663     0.5857 C.2     
  24 N24           -8.1908     3.8457     0.4053 N.2     
  25 C25           -6.9210     4.4746     0.0482 C.3     
  26 C26           -5.7607     3.7610     0.7481 C.3     
  27 C27            4.0015    -1.9295    -0.0318 C.3     
  28 C28            3.4605    -2.6267     1.2287 C.3     
  29 C29            2.5274    -3.7548     0.7422 C.3     
  30 C30            3.0200    -4.0624    -0.6938 C.3     
  31 C31            3.3784    -2.6581    -1.2403 C.3     
  32 H32            1.0849     3.0999    -0.0309 H       
  33 H33            6.4644    -0.2590    -0.0640 H       
  34 H34            6.3205     3.8907    -0.0861 H       
  35 H35            3.8599     3.8896    -0.0625 H       
  36 H36           -1.2108    -1.6561    -0.0636 H       
  37 H37           -5.7464    -0.4110     0.1005 H       
  38 H38           -3.6453    -1.7355    -0.1310 H       
  39 H39           -7.2090     0.6521     0.2773 H       
  40 H40           -9.2339     2.1264     0.8439 H       
  41 H41           -6.7830     4.4208    -1.0317 H       
  42 H42           -6.9376     5.5203     0.3553 H       
  43 H43           -5.7972     3.9705     1.8171 H       
  44 H44           -4.8153     4.1186     0.3402 H       
  45 H45            5.0880    -2.0101    -0.0659 H       
  46 H46            4.2844    -3.0465     1.8059 H       
  47 H47            2.9014    -1.9162     1.8375 H       
  48 H48            2.6295    -4.6348     1.3772 H       
  49 H49            1.4925    -3.4132     0.7255 H       
  50 H50            3.9007    -4.7043    -0.6708 H       
  51 H51            2.2253    -4.5161    -1.2859 H       
  52 H52            2.4808    -2.1394    -1.5772 H       
  53 H53            4.1014    -2.7378    -2.0521 H       
@<TRIPOS>BOND
   1    1    2 ar
   2    1    6 ar
   3    2    3 ar
   4    2   14 1
   5    3    4 ar
   6    4    5 ar
   7    4    7 1
   8    5    6 ar
   9    5    9 1
  10    6   32 1
  11    7    8 1
  12    7   27 1
  13    8    9 ar
  14    8   10 ar
  15    9   13 ar
  16   10   11 ar
  17   10   33 1
  18   11   12 ar
  19   12   13 ar
  20   12   34 1
  21   13   35 1
  22   14   15 1
  23   14   36 1
  24   15   16 ar
  25   15   20 ar
  26   16   17 ar
  27   17   18 ar
  28   18   19 ar
  29   18   21 1
  30   19   20 ar
  31   19   37 1
  32   20   38 1
  33   21   22 2
  34   21   26 1
  35   22   23 1
  36   22   39 1
  37   23   24 2
  38   23   40 1
  39   24   25 1
  40   25   26 1
  41   25   41 1
  42   25   42 1
  43   26   43 1
  44   26   44 1
  45   27   28 1
  46   27   31 1
  47   27   45 1
  48   28   29 1
  49   28   46 1
  50   28   47 1
  51   29   30 1
  52   29   48 1
  53   29   49 1
  54   30   31 1
  55   30   50 1
  56   30   51 1
  57   31   52 1
  58   31   53 1

#	End of record

