#	Name: ASD01410365
#	Creating user name:	WinNT
#	Creation time:	15. 06. 2019 19:17

#	Modifying user name:	WinNT
#	Modification time:	15. 06. 2019 19:17

#	Program:	/corina/corina34_cracker 3.40 0067  02.08.2006

@<TRIPOS>MOLECULE
ASD01410365
  58   62    0    0    0
SMALL
NO_CHARGES


@<TRIPOS>ATOM
   1 N1             0.0959     1.3633    -0.1331 N.am    
   2 C2            -0.0674     0.0024    -0.0287 C.2     
   3 C3             1.1474    -0.5866     0.1110 C.2     
   4 C4             2.1280     0.4341     0.0957 C.ar    
   5 C5             3.5267     0.4244     0.1994 C.ar    
   6 C6             4.2214     1.5935     0.1509 C.ar    
   7 C7             3.5477     2.8147    -0.0027 C.ar    
   8 C8             2.1578     2.8422    -0.1072 C.ar    
   9 C9             1.4423     1.6562    -0.0592 C.ar    
  10 C10            4.3126     4.0737    -0.0532 C.2     
  11 O11            3.7316     5.1327    -0.1861 O.2     
  12 O12            5.6563     4.0504     0.0480 O.3     
  13 S13           -1.1223     2.4688    -0.3234 S.o2    
  14 O14           -2.2941     1.7258    -0.6301 O.2     
  15 O15           -1.0330     3.3585     0.7810 O.2     
  16 C16           -0.7454     3.4183    -1.7590 C.ar    
  17 C17           -1.0822     2.9407    -3.0117 C.ar    
  18 C18           -0.7864     3.6856    -4.1380 C.ar    
  19 C19           -0.1542     4.9084    -4.0115 C.ar    
  20 C20            0.1818     5.3865    -2.7588 C.ar    
  21 C21           -0.1179     4.6435    -1.6322 C.ar    
  22 C22           -1.3636    -0.7084    -0.0627 C.ar    
  23 C23           -2.3637    -0.3866     0.8560 C.ar    
  24 C24           -3.5710    -1.0533     0.8186 C.ar    
  25 C25           -3.7911    -2.0393    -0.1267 C.ar    
  26 C26           -2.8038    -2.3631    -1.0403 C.ar    
  27 C27           -1.5942    -1.7000    -1.0173 C.ar    
  28 C28            1.4061    -2.0641     0.2564 C.3     
  29 C29            2.2935    -2.5421    -0.8946 C.3     
  30 C30            2.5562    -4.0422    -0.7470 C.3     
  31 C31            3.2611    -4.3079     0.5847 C.3     
  32 C32            2.3737    -3.8298     1.7357 C.3     
  33 C33            2.1110    -2.3298     1.5881 C.3     
  34 H34            4.0526    -0.5115     0.3181 H       
  35 H35            5.2983     1.5813     0.2314 H       
  36 H36            1.6411     3.7832    -0.2246 H       
  37 H37            6.1143     4.9012     0.0095 H       
  38 H38           -1.5761     1.9853    -3.1106 H       
  39 H39           -1.0489     3.3121    -5.1168 H       
  40 H40            0.0775     5.4901    -4.8915 H       
  41 H41            0.6760     6.3417    -2.6600 H       
  42 H42            0.1413     5.0187    -0.6532 H       
  43 H43           -2.1928     0.3823     1.5948 H       
  44 H44           -4.3457    -0.8053     1.5289 H       
  45 H45           -4.7377    -2.5587    -0.1514 H       
  46 H46           -2.9820    -3.1338    -1.7757 H       
  47 H47           -0.8260    -1.9506    -1.7339 H       
  48 H48            0.4589    -2.6029     0.2329 H       
  49 H49            1.7913    -2.3529    -1.8434 H       
  50 H50            3.2407    -2.0034    -0.8711 H       
  51 H51            1.6090    -4.5810    -0.7705 H       
  52 H52            3.1884    -4.3828    -1.5670 H       
  53 H53            3.4482    -5.3765     0.6899 H       
  54 H54            4.2083    -3.7691     0.6082 H       
  55 H55            1.4265    -4.3686     1.7122 H       
  56 H56            2.8759    -4.0191     2.6845 H       
  57 H57            3.0582    -1.7910     1.6116 H       
  58 H58            1.4788    -1.9892     2.4081 H       
@<TRIPOS>BOND
   1    1    2 1
   2    1    9 1
   3    1   13 am
   4    2    3 2
   5    2   22 1
   6    3    4 1
   7    3   28 1
   8    4    5 ar
   9    4    9 ar
  10    5    6 ar
  11    5   34 1
  12    6    7 ar
  13    6   35 1
  14    7    8 ar
  15    7   10 1
  16    8    9 ar
  17    8   36 1
  18   10   11 2
  19   10   12 1
  20   12   37 1
  21   13   14 2
  22   13   15 2
  23   13   16 1
  24   16   17 ar
  25   16   21 ar
  26   17   18 ar
  27   17   38 1
  28   18   19 ar
  29   18   39 1
  30   19   20 ar
  31   19   40 1
  32   20   21 ar
  33   20   41 1
  34   21   42 1
  35   22   23 ar
  36   22   27 ar
  37   23   24 ar
  38   23   43 1
  39   24   25 ar
  40   24   44 1
  41   25   26 ar
  42   25   45 1
  43   26   27 ar
  44   26   46 1
  45   27   47 1
  46   28   29 1
  47   28   33 1
  48   28   48 1
  49   29   30 1
  50   29   49 1
  51   29   50 1
  52   30   31 1
  53   30   51 1
  54   30   52 1
  55   31   32 1
  56   31   53 1
  57   31   54 1
  58   32   33 1
  59   32   55 1
  60   32   56 1
  61   33   57 1
  62   33   58 1

#	End of record

