#	Name: ASD01916339
#	Creating user name:	WinNT
#	Creation time:	15. 06. 2019 20:07

#	Modifying user name:	WinNT
#	Modification time:	15. 06. 2019 20:07

#	Program:	/corina/corina34_cracker 3.40 0067  02.08.2006

@<TRIPOS>MOLECULE
ASD01916339
  47   50    0    0    0
SMALL
NO_CHARGES


@<TRIPOS>ATOM
   1 C1            -0.0167     1.3784     0.0096 C.ar    
   2 C2             0.0021    -0.0041     0.0020 C.ar    
   3 C3             1.2074    -0.6814    -0.0127 C.ar    
   4 C4             2.3963     0.0221    -0.0203 C.ar    
   5 C5             2.3802     1.4093    -0.0132 C.ar    
   6 C6             1.1695     2.0865     0.0021 C.ar    
   7 O7             3.5484     2.1036    -0.0202 O.3     
   8 C8             3.4557     3.5296    -0.0122 C.3     
   9 C9             4.8408     4.1231    -0.0217 C.2     
  10 N10            5.1284     5.4014    -0.0174 N.2     
  11 N11            6.5186     5.5340    -0.0292 N.pl3   
  12 C12            7.0549     4.2920    -0.0395 C.2     
  13 C13            6.0421     3.4032    -0.0305 C.2     
  14 C14            7.2975     6.7758    -0.0316 C.3     
  15 C15            8.7291     6.4598    -0.4776 C.3     
  16 C16            9.2758     5.2893     0.3449 C.3     
  17 C17            8.5360     4.0050    -0.0524 C.3     
  18 N18            8.8423     2.9384     0.9102 N.3     
  19 C19            8.6761     1.6133     0.2984 C.3     
  20 C20            8.9983     0.5473     1.3136 C.ar    
  21 C21            8.0074     0.0362     2.1300 C.ar    
  22 N22            8.2818    -0.8969     3.0207 N.ar    
  23 C23            9.5008    -1.3774     3.1686 C.ar    
  24 C24           10.5428    -0.9146     2.3871 C.ar    
  25 C25           10.2918     0.0627     1.4365 C.ar    
  26 H26           -0.9595     1.9052     0.0170 H       
  27 H27           -0.9263    -0.5558     0.0080 H       
  28 H28            1.2194    -1.7613    -0.0179 H       
  29 H29            3.3375    -0.5074    -0.0315 H       
  30 H30            1.1543     3.1664     0.0073 H       
  31 H31            2.9113     3.8632    -0.8956 H       
  32 H32            2.9274     3.8543     0.8842 H       
  33 H33            6.1394     2.3276    -0.0352 H       
  34 H34            6.8479     7.4877    -0.7239 H       
  35 H35            7.3128     7.1995     0.9725 H       
  36 H36            8.7296     6.1926    -1.5343 H       
  37 H37            9.3588     7.3363    -0.3247 H       
  38 H38           10.3413     5.1716     0.1474 H       
  39 H39            9.1207     5.4858     1.4058 H       
  40 H40            8.8428     3.6980    -1.0523 H       
  41 H41            9.7715     3.0483     1.2880 H       
  42 H42            7.6461     1.4951    -0.0381 H       
  43 H43            9.3496     1.5193    -0.5534 H       
  44 H44            6.9967     0.4053     2.0377 H       
  45 H45            9.6873    -2.1410     3.9092 H       
  46 H46           11.5391    -1.3118     2.5132 H       
  47 H47           11.0863     0.4432     0.8117 H       
@<TRIPOS>BOND
   1    1    2 ar
   2    1    6 ar
   3    1   26 1
   4    2    3 ar
   5    2   27 1
   6    3    4 ar
   7    3   28 1
   8    4    5 ar
   9    4   29 1
  10    5    6 ar
  11    5    7 1
  12    6   30 1
  13    7    8 1
  14    8    9 1
  15    8   31 1
  16    8   32 1
  17    9   10 2
  18    9   13 1
  19   10   11 1
  20   11   12 1
  21   11   14 1
  22   12   13 2
  23   12   17 1
  24   13   33 1
  25   14   15 1
  26   14   34 1
  27   14   35 1
  28   15   16 1
  29   15   36 1
  30   15   37 1
  31   16   17 1
  32   16   38 1
  33   16   39 1
  34   17   18 1
  35   17   40 1
  36   18   19 1
  37   18   41 1
  38   19   20 1
  39   19   42 1
  40   19   43 1
  41   20   21 ar
  42   20   25 ar
  43   21   22 ar
  44   21   44 1
  45   22   23 ar
  46   23   24 ar
  47   23   45 1
  48   24   25 ar
  49   24   46 1
  50   25   47 1

#	End of record

