#	Name: ASD01410983
#	Creating user name:	WinNT
#	Creation time:	15. 06. 2019 19:19

#	Modifying user name:	WinNT
#	Modification time:	15. 06. 2019 19:19

#	Program:	/corina/corina34_cracker 3.40 0067  02.08.2006

@<TRIPOS>MOLECULE
ASD01410983
  71   75    0    0    0
SMALL
NO_CHARGES


@<TRIPOS>ATOM
   1 C1             3.6848     9.2385    -5.1651 C.ar    
   2 C2             3.6213     7.8698    -4.9153 C.ar    
   3 C3             2.6417     7.3564    -4.0858 C.ar    
   4 C4             1.7146     8.2034    -3.4964 C.ar    
   5 C5             1.7742     9.5840    -3.7448 C.ar    
   6 C6             2.7717    10.0946    -4.5810 C.ar    
   7 O7             4.6525     9.7343    -5.9822 O.3     
   8 C8             4.4354     9.6988    -7.3209 C.ar    
   9 N9             0.7273     7.6858    -2.6609 N.am    
  10 C10            1.0564     7.2075    -1.4446 C.2     
  11 C11            2.4656     7.2148    -1.0053 C.ar    
  12 O12            0.1926     6.7700    -0.7093 O.2     
  13 C13            3.3158     8.2539    -1.3915 C.ar    
  14 C14            4.2756     6.1991     0.2120 C.ar    
  15 C15            5.1114     7.2292    -0.1802 C.ar    
  16 C16            4.6303     8.2553    -0.9778 C.ar    
  17 Br17           6.9169     7.2417     0.3816 Br      
  18 N18            3.2589     9.3091    -7.7838 N.ar    
  19 C19           -0.6688     7.6614    -3.1044 C.3     
  20 C20           -1.5442     8.3755    -2.0727 C.3     
  21 C21            5.4487    10.0774    -8.1923 C.ar    
  22 C22            5.2143    10.0366    -9.5559 C.ar    
  23 C23            3.9687     9.6165   -10.0012 C.ar    
  24 C24            3.0059     9.2599    -9.0776 C.ar    
  25 F25            4.5212     7.0398    -5.4868 F       
  26 C26            2.9545     6.1844    -0.1955 C.ar    
  27 C27            3.6681     9.5561   -11.4767 C.3     
  28 C28           -2.5903     6.1850    -3.7130 C.3     
  29 C29           -1.1324     6.2106    -3.2499 C.3     
  30 N30            4.0243     8.2325   -11.9938 N.pl3   
  31 N31            3.2250     7.2261   -12.0384 N.2     
  32 C32            3.8646     6.2023   -12.5569 C.2     
  33 C33            5.1541     6.6594   -12.8384 C.2     
  34 N34            5.1774     7.9203   -12.4700 N.2     
  35 C35           -3.0022     8.3500    -2.5359 C.3     
  36 C36           -3.4658     6.8992    -2.6813 C.3     
  37 O37           -4.8275     6.8754    -3.1139 O.3     
  38 C38           -5.5615     5.7361    -2.6608 C.3     
  39 F39            2.1383     5.1783     0.1877 F       
  40 C40            6.7850    10.5270    -7.6603 C.3     
  41 F41            7.6271    10.8518    -8.7292 F       
  42 F42            6.6088    11.6516    -6.8470 F       
  43 F43            7.3598     9.4949    -6.9108 F       
  44 C44            0.7939    10.4904    -3.1239 C.2     
  45 O45            0.6016    10.4480    -1.9246 O.2     
  46 O46            0.1098    11.3671    -3.8854 O.3     
  47 H47            2.5980     6.2940    -3.8967 H       
  48 H48            2.8234    11.1555    -4.7760 H       
  49 H49            2.9437     9.0544    -2.0136 H       
  50 H50            4.6570     5.4025     0.8337 H       
  51 H51            5.2877     9.0585    -1.2763 H       
  52 H52           -0.7535     8.1680    -4.0658 H       
  53 H53           -1.4595     7.8689    -1.1113 H       
  54 H54           -1.2140     9.4091    -1.9691 H       
  55 H55            5.9831    10.3254   -10.2573 H       
  56 H56            2.0350     8.9324    -9.4190 H       
  57 H57            2.6052     9.7353   -11.6386 H       
  58 H58            4.2484    10.3178   -11.9973 H       
  59 H59           -2.6751     6.6917    -4.6744 H       
  60 H60           -2.9206     5.1515    -3.8166 H       
  61 H61           -0.5087     5.7018    -3.9849 H       
  62 H62           -1.0476     5.7040    -2.2885 H       
  63 H63            3.4736     5.2105   -12.7297 H       
  64 H64            5.9644     6.0936   -13.2738 H       
  65 H65           -3.6259     8.8588    -1.8009 H       
  66 H66           -3.0869     8.8566    -3.4973 H       
  67 H67           -3.3811     6.3926    -1.7199 H       
  68 H68           -5.0893     4.8275    -3.0345 H       
  69 H69           -5.5699     5.7192    -1.5709 H       
  70 H70           -6.5851     5.7924    -3.0312 H       
  71 H71           -0.5229    11.9415    -3.4328 H       
@<TRIPOS>BOND
   1    1    2 ar
   2    1    7 1
   3    1    6 ar
   4    2    3 ar
   5    2   25 1
   6    3    4 ar
   7    3   47 1
   8    4    5 ar
   9    4    9 1
  10    5    6 ar
  11    5   44 1
  12    6   48 1
  13    7    8 1
  14    8   21 ar
  15    8   18 ar
  16    9   10 am
  17    9   19 1
  18   10   11 1
  19   10   12 2
  20   11   13 ar
  21   11   26 ar
  22   13   16 ar
  23   13   49 1
  24   14   15 ar
  25   14   26 ar
  26   14   50 1
  27   15   16 ar
  28   15   17 1
  29   16   51 1
  30   18   24 ar
  31   19   20 1
  32   19   29 1
  33   19   52 1
  34   20   35 1
  35   20   53 1
  36   20   54 1
  37   21   22 ar
  38   21   40 1
  39   22   23 ar
  40   22   55 1
  41   23   24 ar
  42   23   27 1
  43   24   56 1
  44   26   39 1
  45   27   30 1
  46   27   57 1
  47   27   58 1
  48   28   29 1
  49   28   36 1
  50   28   59 1
  51   28   60 1
  52   29   61 1
  53   29   62 1
  54   30   31 1
  55   30   34 1
  56   31   32 2
  57   32   33 1
  58   32   63 1
  59   33   34 2
  60   33   64 1
  61   35   36 1
  62   35   65 1
  63   35   66 1
  64   36   37 1
  65   36   67 1
  66   37   38 1
  67   38   68 1
  68   38   69 1
  69   38   70 1
  70   40   41 1
  71   40   42 1
  72   40   43 1
  73   44   45 2
  74   44   46 1
  75   46   71 1

#	End of record

