#	Name: ASD02560092
#	Creating user name:	WinNT
#	Creation time:	15. 06. 2019 20:24

#	Modifying user name:	WinNT
#	Modification time:	15. 06. 2019 20:24

#	Program:	/corina/corina34_cracker 3.40 0067  02.08.2006

@<TRIPOS>MOLECULE
ASD02560092
  50   53    0    0    0
SMALL
NO_CHARGES


@<TRIPOS>ATOM
   1 C1             5.2811     2.6623    -0.6215 C.3     
   2 C2             4.6130     2.0138    -1.8336 C.3     
   3 C3             3.1253     1.9108    -1.6239 C.ar    
   4 C4             2.5678     1.9596    -0.3568 C.ar    
   5 N5             3.3767     2.1134     0.7789 N.am    
   6 C6             4.8282     1.9271     0.6468 C.3     
   7 C7             2.3018     1.7635    -2.7283 C.ar    
   8 C8             0.9325     1.6636    -2.5692 C.ar    
   9 C9             0.3748     1.7098    -1.3033 C.ar    
  10 C10            1.1893     1.8577    -0.1976 C.ar    
  11 C11            2.8318     2.4272     1.9710 C.2     
  12 C12            3.4214     1.8673     3.2398 C.3     
  13 O13            1.8669     3.1603     2.0226 O.2     
  14 C14            4.4089     2.7476     4.0084 C.3     
  15 C15            4.7176     4.1082     3.4387 C.2     
  16 N16            5.5619     4.9346     4.0873 N.am    
  17 O17            4.2061     4.4595     2.3966 O.2     
  18 C18            5.7672     6.2364     3.6156 C.ar    
  19 C19            4.7355     6.9188     2.9857 C.ar    
  20 C20            4.9410     8.2038     2.5217 C.ar    
  21 C21            6.1727     8.8106     2.6835 C.ar    
  22 C22            7.2032     8.1342     3.3106 C.ar    
  23 C23            7.0028     6.8509     3.7822 C.ar    
  24 Cl24           8.2964     6.0023     4.5697 Cl      
  25 Cl25           0.4928     1.9157     1.3915 Cl      
  26 Cl26          -0.0900     1.4804    -3.9601 Cl      
  27 S27            6.4302    10.4491     2.0890 S.o2    
  28 O28            7.8283    10.5175     1.8443 O.2     
  29 O29            5.4934    10.5889     1.0297 O.2     
  30 C30            3.0009     2.5156     4.5603 C.3     
  31 C31            5.9756    11.5140     3.4854 C.3     
  32 H32            6.3643     2.5891    -0.7189 H       
  33 H33            4.9881     3.7104    -0.5603 H       
  34 H34            4.8105     2.6178    -2.7192 H       
  35 H35            5.0255     1.0156    -1.9804 H       
  36 H36            5.0578     0.8651     0.5600 H       
  37 H37            5.3348     2.3452     1.5167 H       
  38 H38            2.7319     1.7270    -3.7183 H       
  39 H39           -0.6952     1.6306    -1.1803 H       
  40 H40            3.5994     0.7919     3.2409 H       
  41 H41            5.2366     2.2513     4.5152 H       
  42 H42            6.0274     4.6272     4.8809 H       
  43 H43            3.7732     6.4455     2.8581 H       
  44 H44            4.1385     8.7349     2.0315 H       
  45 H45            8.1642     8.6110     3.4354 H       
  46 H46            2.2979     3.3471     4.5114 H       
  47 H47            2.9020     1.8667     5.4305 H       
  48 H48            6.6138    11.2859     4.3391 H       
  49 H49            6.1060    12.5587     3.2031 H       
  50 H50            4.9339    11.3373     3.7530 H       
@<TRIPOS>BOND
   1    1    2 1
   2    1    6 1
   3    1   32 1
   4    1   33 1
   5    2    3 1
   6    2   34 1
   7    2   35 1
   8    3    4 ar
   9    3    7 ar
  10    4    5 1
  11    4   10 ar
  12    5    6 1
  13    5   11 am
  14    6   36 1
  15    6   37 1
  16    7    8 ar
  17    7   38 1
  18    8    9 ar
  19    8   26 1
  20    9   10 ar
  21    9   39 1
  22   10   25 1
  23   11   12 1
  24   11   13 2
  25   12   14 1
  26   12   30 1
  27   12   40 1
  28   14   15 1
  29   14   30 1
  30   14   41 1
  31   15   16 am
  32   15   17 2
  33   16   18 1
  34   16   42 1
  35   18   19 ar
  36   18   23 ar
  37   19   20 ar
  38   19   43 1
  39   20   21 ar
  40   20   44 1
  41   21   22 ar
  42   21   27 1
  43   22   23 ar
  44   22   45 1
  45   23   24 1
  46   27   28 2
  47   27   29 2
  48   27   31 1
  49   30   46 1
  50   30   47 1
  51   31   48 1
  52   31   49 1
  53   31   50 1

#	End of record

