#	Name: ASD01000087
#	Creating user name:	WinNT
#	Creation time:	15. 06. 2019 18:54

#	Modifying user name:	WinNT
#	Modification time:	15. 06. 2019 18:54

#	Program:	/corina/corina34_cracker 3.40 0067  02.08.2006

@<TRIPOS>MOLECULE
ASD01000087
  66   69    0    0    0
SMALL
NO_CHARGES


@<TRIPOS>ATOM
   1 C1             6.9560    -6.1381     1.0774 C.ar    
   2 C2             6.2668    -5.5313     2.1090 C.ar    
   3 C3             5.3676    -4.5087     1.8345 C.ar    
   4 C4             5.1647    -4.1001     0.5225 C.ar    
   5 C5             5.8571    -4.7111    -0.5043 C.ar    
   6 C6             6.7516    -5.7288    -0.2276 C.ar    
   7 N7             4.6686    -3.8932     2.8754 N.pl3   
   8 N8             3.7068    -2.9150     2.5910 N.am    
   9 C9             2.3867    -3.2268     2.6680 C.2     
  10 C10            2.0055    -4.6308     3.0612 C.3     
  11 C11            2.7810    -5.0374     4.3159 C.3     
  12 C12            4.1015    -1.6668     2.2477 C.2     
  13 C13            3.0506    -0.6799     1.9598 C.ar    
  14 C14            1.7044    -1.0970     2.0600 C.ar    
  15 N15            1.4368    -2.3770     2.4204 N.2     
  16 C16            3.3501     0.6320     1.5980 C.ar    
  17 C17            2.3351     1.5113     1.3411 C.ar    
  18 C18            1.0075     1.1103     1.4369 C.ar    
  19 C19            0.6848    -0.1818     1.7925 C.ar    
  20 C20           -0.2102    -2.5530     4.2416 C.3     
  21 C21            0.0240    -4.0370     4.5309 C.3     
  22 N22            0.5676    -4.6875     3.3361 N.am    
  23 C23            2.8942    -3.8364     5.2570 C.3     
  24 C24           -0.7687    -1.8716     5.4925 C.3     
  25 N25           -0.8818    -0.4265     5.2537 N.3     
  26 Cl26          -0.2589     2.2502     1.1044 Cl      
  27 O27            5.2808    -1.3726     2.1802 O.2     
  28 C28           -0.2551    -5.3382     2.4897 C.2     
  29 C29            0.2831    -5.9366     1.2494 C.ar    
  30 O30           -1.4395    -5.4331     2.7461 O.2     
  31 C31           -0.2898    -7.0959     0.7252 C.ar    
  32 C32            0.2183    -7.6499    -0.4346 C.ar    
  33 C33            1.2940    -7.0560    -1.0748 C.ar    
  34 C34            1.8653    -5.9069    -0.5582 C.ar    
  35 C35            1.3626    -5.3409     0.5951 C.ar    
  36 C36            2.0426    -6.1738     5.0259 C.3     
  37 F37           -0.3344    -8.7723    -0.9444 F       
  38 H38            7.6586    -6.9301     1.2906 H       
  39 H39            6.4267    -5.8517     3.1280 H       
  40 H40            4.4660    -3.3056     0.3056 H       
  41 H41            5.6996    -4.3941    -1.5247 H       
  42 H42            7.2921    -6.2048    -1.0324 H       
  43 H43            4.8491    -4.1430     3.7952 H       
  44 H44            2.2471    -5.3144     2.2473 H       
  45 H45            3.7788    -5.3730     4.0334 H       
  46 H46            4.3786     0.9527     1.5213 H       
  47 H47            2.5671     2.5282     1.0610 H       
  48 H48           -0.3497    -0.4838     1.8643 H       
  49 H49            0.7333    -2.0838     3.9629 H       
  50 H50           -0.9228    -2.4504     3.4232 H       
  51 H51            0.7312    -4.1396     5.3540 H       
  52 H52           -0.9208    -4.5077     4.8028 H       
  53 H53            1.9290    -3.3342     5.3230 H       
  54 H54            3.1946    -4.1780     6.2475 H       
  55 H55            3.6398    -3.1413     4.8709 H       
  56 H56           -1.7532    -2.2803     5.7200 H       
  57 H57           -0.0983    -2.0495     6.3332 H       
  58 H58           -1.4467    -0.2377     4.4393 H       
  59 H59           -1.2487     0.0466     6.0659 H       
  60 H60           -1.1279    -7.5592     1.2246 H       
  61 H61            1.6884    -7.4923    -1.9807 H       
  62 H62            2.7038    -5.4490    -1.0617 H       
  63 H63            1.8102    -4.4437     0.9967 H       
  64 H64            0.9797    -5.9385     5.0801 H       
  65 H65            2.1816    -7.1008     4.4696 H       
  66 H66            2.4405    -6.2918     6.0338 H       
@<TRIPOS>BOND
   1    1    2 ar
   2    1    6 ar
   3    1   38 1
   4    2    3 ar
   5    2   39 1
   6    3    4 ar
   7    3    7 1
   8    4    5 ar
   9    4   40 1
  10    5    6 ar
  11    5   41 1
  12    6   42 1
  13    7    8 1
  14    7   43 1
  15    8    9 1
  16    8   12 am
  17    9   10 1
  18    9   15 2
  19   10   11 1
  20   10   22 1
  21   10   44 1
  22   11   23 1
  23   11   36 1
  24   11   45 1
  25   12   13 1
  26   12   27 2
  27   13   14 ar
  28   13   16 ar
  29   14   15 1
  30   14   19 ar
  31   16   17 ar
  32   16   46 1
  33   17   18 ar
  34   17   47 1
  35   18   19 ar
  36   18   26 1
  37   19   48 1
  38   20   21 1
  39   20   24 1
  40   20   49 1
  41   20   50 1
  42   21   22 1
  43   21   51 1
  44   21   52 1
  45   22   28 am
  46   23   53 1
  47   23   54 1
  48   23   55 1
  49   24   25 1
  50   24   56 1
  51   24   57 1
  52   25   58 1
  53   25   59 1
  54   28   29 1
  55   28   30 2
  56   29   31 ar
  57   29   35 ar
  58   31   32 ar
  59   31   60 1
  60   32   33 ar
  61   32   37 1
  62   33   34 ar
  63   33   61 1
  64   34   35 ar
  65   34   62 1
  66   35   63 1
  67   36   64 1
  68   36   65 1
  69   36   66 1

#	End of record

