#	Name: ASD06170127
#	Creating user name:	WinNT
#	Creation time:	15. 06. 2019 21:05

#	Modifying user name:	WinNT
#	Modification time:	15. 06. 2019 21:05

#	Program:	/corina/corina34_cracker 3.40 0067  02.08.2006

@<TRIPOS>MOLECULE
ASD06170127
  69   73    0    0    0
SMALL
NO_CHARGES


@<TRIPOS>ATOM
   1 N1             0.0335    -1.9132     0.7554 N.pl3   
   2 N2             0.2335    -0.6687     0.1506 N.am    
   3 C3             1.5599    -0.4718     0.0012 C.2     
   4 C4             2.2239    -1.6665     0.5463 C.2     
   5 C5             1.2201    -2.5052     0.9900 C.2     
   6 C6             3.6688    -1.9176     0.6067 C.2     
   7 O7             4.0866    -2.9552     1.0862 O.2     
   8 N8             4.5329    -0.9991     0.1312 N.am    
   9 C9            -1.2728    -2.4856     1.0901 C.3     
  10 C10           -1.7689    -3.3151    -0.0661 C.2     
  11 C11           -2.1049    -4.5671     0.1226 C.2     
  12 C12           -0.7728     0.2229    -0.2350 C.ar    
  13 C13           -1.7603     0.5913     0.6696 C.ar    
  14 C14           -2.7523     1.4723     0.2858 C.ar    
  15 C15           -2.7631     1.9874    -0.9975 C.ar    
  16 C16           -1.7816     1.6222    -1.9006 C.ar    
  17 C17           -0.7836     0.7461    -1.5214 C.ar    
  18 O18            2.1008     0.5020    -0.4886 O.2     
  19 C19            1.4193    -3.8553     1.6293 C.3     
  20 C20            5.9119    -1.1918     0.2801 C.ar    
  21 C21            6.4469    -2.4711     0.2016 C.ar    
  22 C22            7.8082    -2.6603     0.3482 C.ar    
  23 C23            8.6403    -1.5702     0.5742 C.ar    
  24 C24            8.1051    -0.2936     0.6524 C.ar    
  25 C25            6.7452    -0.1035     0.5006 C.ar    
  26 F26            8.3297    -3.9043     0.2725 F       
  27 O27            9.9797    -1.7559     0.7190 O.3     
  28 N28           12.2725    -1.9240    -2.7067 N.ar    
  29 C29           10.9645    -1.8478    -2.7907 C.ar    
  30 C30           10.1601    -1.7889    -1.6588 C.ar    
  31 C31           10.7401    -1.8117    -0.4033 C.ar    
  32 C32           12.1479    -1.8942    -0.3250 C.ar    
  33 C33           12.8077    -1.9218     0.9133 C.ar    
  34 C34           14.1695    -2.0020     0.9514 C.ar    
  35 C35           14.9163    -2.0568    -0.2346 C.ar    
  36 C36           14.3005    -2.0311    -1.4519 C.ar    
  37 C37           12.8992    -1.9497    -1.5243 C.ar    
  38 O38           13.0384    -1.9867    -3.8960 O.3     
  39 O39           16.2715    -2.1360    -0.1705 O.3     
  40 C40           16.9778    -2.1888    -1.4116 C.3     
  41 O41           14.8088    -2.0288     2.1511 O.3     
  42 C42           13.9926    -1.9696     3.3226 C.3     
  43 H43            4.1995    -0.2045    -0.3143 H       
  44 H44           -1.1777    -3.1153     1.9747 H       
  45 H45           -1.9811    -1.6817     1.2908 H       
  46 H46           -1.8475    -2.8773    -1.0503 H       
  47 H47           -2.4604    -5.1616    -0.7060 H       
  48 H48           -2.0263    -5.0049     1.1068 H       
  49 H49           -1.7526     0.1891     1.6718 H       
  50 H50           -3.5206     1.7589     0.9886 H       
  51 H51           -3.5399     2.6761    -1.2951 H       
  52 H52           -1.7931     2.0260    -2.9022 H       
  53 H53           -0.0148     0.4648    -2.2259 H       
  54 H54            1.4287    -4.6249     0.8575 H       
  55 H55            2.3681    -3.8669     2.1656 H       
  56 H56            0.6051    -4.0505     2.3272 H       
  57 H57            5.7996    -3.3177     0.0263 H       
  58 H58            8.7521     0.5530     0.8283 H       
  59 H59            6.3297     0.8918     0.5572 H       
  60 H60           10.5009    -1.8297    -3.7660 H       
  61 H61            9.0866    -1.7261    -1.7591 H       
  62 H62           12.2407    -1.8794     1.8315 H       
  63 H63           14.8880    -2.0735    -2.3571 H       
  64 H64           16.6594    -3.0667    -1.9737 H       
  65 H65           16.7640    -1.2899    -1.9898 H       
  66 H66           18.0487    -2.2501    -1.2179 H       
  67 H67           13.3119    -2.8208     3.3345 H       
  68 H68           14.6265    -1.9989     4.2089 H       
  69 H69           13.4170    -1.0440     3.3180 H       
@<TRIPOS>BOND
   1    1    2 1
   2    1    5 1
   3    1    9 1
   4    2    3 am
   5    2   12 1
   6    3    4 1
   7    3   18 2
   8    4    5 2
   9    4    6 1
  10    5   19 1
  11    6    7 2
  12    6    8 am
  13    8   20 1
  14    8   43 1
  15    9   10 1
  16    9   44 1
  17    9   45 1
  18   10   11 2
  19   10   46 1
  20   11   47 1
  21   11   48 1
  22   12   13 ar
  23   12   17 ar
  24   13   14 ar
  25   13   49 1
  26   14   15 ar
  27   14   50 1
  28   15   16 ar
  29   15   51 1
  30   16   17 ar
  31   16   52 1
  32   17   53 1
  33   19   54 1
  34   19   55 1
  35   19   56 1
  36   20   21 ar
  37   20   25 ar
  38   21   22 ar
  39   21   57 1
  40   22   23 ar
  41   22   26 1
  42   23   24 ar
  43   23   27 1
  44   24   25 ar
  45   24   58 1
  46   25   59 1
  47   27   31 1
  48   28   29 ar
  49   28   37 ar
  50   28   38 1
  51   29   30 ar
  52   29   60 1
  53   30   31 ar
  54   30   61 1
  55   31   32 ar
  56   32   33 ar
  57   32   37 ar
  58   33   34 ar
  59   33   62 1
  60   34   35 ar
  61   34   41 1
  62   35   36 ar
  63   35   39 1
  64   36   37 ar
  65   36   63 1
  66   39   40 1
  67   40   64 1
  68   40   65 1
  69   40   66 1
  70   41   42 1
  71   42   67 1
  72   42   68 1
  73   42   69 1

#	End of record

