#	Name: ASD03092206
#	Creating user name:	WinNT
#	Creation time:	15. 06. 2019 20:32

#	Modifying user name:	WinNT
#	Modification time:	15. 06. 2019 20:32

#	Program:	/corina/corina34_cracker 3.40 0067  02.08.2006

@<TRIPOS>MOLECULE
ASD03092206
  48   50    0    0    0
SMALL
NO_CHARGES


@<TRIPOS>ATOM
   1 C1            -2.3825     1.5692     0.2795 C.ar    
   2 C2            -2.4295     0.1956     0.1569 C.ar    
   3 C3            -1.2299    -0.5231     0.1161 C.ar    
   4 C4            -0.0295     0.1903     0.2022 C.ar    
   5 C5            -0.0750     1.5641     0.3231 C.ar    
   6 N6            -1.2283     2.2037     0.3523 N.ar    
   7 C7            -1.2307    -1.9975    -0.0141 C.2     
   8 C8            -3.6672     2.3557     0.3247 C.3     
   9 N9            -2.2645    -2.8202     0.2710 N.pl3   
  10 N10           -1.8190    -4.1242     0.0005 N.2     
  11 C11           -0.5787    -4.0250    -0.4206 C.2     
  12 N12           -0.2255    -2.7391    -0.4338 N.2     
  13 C13           -3.5872    -2.4292     0.7648 C.3     
  14 C14           -4.5379    -2.2394    -0.4189 C.3     
  15 O15           -4.7352    -3.4924    -1.0769 O.3     
  16 C16           -5.8821    -1.7113     0.0862 C.3     
  17 C17           -6.7898    -1.4036    -1.1064 C.3     
  18 N18            0.2369    -5.0935    -0.7980 N.pl3   
  19 C19            1.5192    -4.8507    -1.3016 C.ar    
  20 C20            2.0400    -3.5639    -1.2876 C.ar    
  21 C21            3.3069    -3.3265    -1.7857 C.ar    
  22 C22            4.0573    -4.3682    -2.2982 C.ar    
  23 C23            3.5428    -5.6533    -2.3150 C.ar    
  24 C24            2.2775    -5.8990    -1.8123 C.ar    
  25 Cl25           4.4884    -6.9581    -2.9607 Cl      
  26 F26            1.7747    -7.1528    -1.8283 F       
  27 C27            1.2105     2.3449     0.4168 C.3     
  28 H28           -3.3780    -0.3170     0.0937 H       
  29 H29            0.9184    -0.3265     0.1749 H       
  30 H30           -3.9965     2.4546     1.3590 H       
  31 H31           -3.5022     3.3458    -0.1004 H       
  32 H32           -4.4321     1.8356    -0.2520 H       
  33 H33           -3.9750    -3.2084     1.4210 H       
  34 H34           -3.5063    -1.4943     1.3193 H       
  35 H35           -4.1070    -1.5247    -1.1200 H       
  36 H36           -5.1169    -4.1778    -0.5115 H       
  37 H37           -6.3543    -2.4641     0.7174 H       
  38 H38           -5.7210    -0.8015     0.6644 H       
  39 H39           -7.7474    -1.0274    -0.7466 H       
  40 H40           -6.3176    -0.6508    -1.7377 H       
  41 H41           -6.9509    -2.3134    -1.6847 H       
  42 H42           -0.0856    -6.0042    -0.7109 H       
  43 H43            1.4551    -2.7487    -0.8880 H       
  44 H44            3.7114    -2.3252    -1.7749 H       
  45 H45            5.0471    -4.1790    -2.6866 H       
  46 H46            1.5400     2.6238    -0.5840 H       
  47 H47            1.0466     3.2449     1.0094 H       
  48 H48            1.9748     1.7306     0.8929 H       
@<TRIPOS>BOND
   1    1    2 ar
   2    1    8 1
   3    1    6 ar
   4    2    3 ar
   5    2   28 1
   6    3    4 ar
   7    3    7 1
   8    4    5 ar
   9    4   29 1
  10    5    6 ar
  11    5   27 1
  12    7    9 1
  13    7   12 2
  14    8   30 1
  15    8   31 1
  16    8   32 1
  17    9   10 1
  18    9   13 1
  19   10   11 2
  20   11   12 1
  21   11   18 1
  22   13   14 1
  23   13   33 1
  24   13   34 1
  25   14   15 1
  26   14   16 1
  27   14   35 1
  28   15   36 1
  29   16   17 1
  30   16   37 1
  31   16   38 1
  32   17   39 1
  33   17   40 1
  34   17   41 1
  35   18   19 1
  36   18   42 1
  37   19   20 ar
  38   19   24 ar
  39   20   21 ar
  40   20   43 1
  41   21   22 ar
  42   21   44 1
  43   22   23 ar
  44   22   45 1
  45   23   24 ar
  46   23   25 1
  47   24   26 1
  48   27   46 1
  49   27   47 1
  50   27   48 1

#	End of record

