#	Name: ASD01815636
#	Creating user name:	WinNT
#	Creation time:	15. 06. 2019 19:33

#	Modifying user name:	WinNT
#	Modification time:	15. 06. 2019 19:33

#	Program:	/corina/corina34_cracker 3.40 0067  02.08.2006

@<TRIPOS>MOLECULE
ASD01815636
  38   40    0    0    0
SMALL
NO_CHARGES


@<TRIPOS>ATOM
   1 C1             0.1663     1.4904     0.6796 C.ar    
   2 C2             0.1405     0.1032     0.6688 C.ar    
   3 C3             1.2888    -0.6204     0.4317 C.ar    
   4 C4             2.4920     0.0406     0.1991 C.ar    
   5 C5             2.5154     1.4457     0.2101 C.ar    
   6 C6             1.3455     2.1652     0.4519 C.ar    
   7 N7             3.6475    -0.6718    -0.0388 N.pl3   
   8 C8             4.8287    -0.0837    -0.2670 C.2     
   9 C9             4.9768     1.2885    -0.2808 C.2     
  10 C10            3.7963     2.1334    -0.0378 C.2     
  11 O11            3.8743     3.3494    -0.0398 O.2     
  12 C12            6.2911     1.8958    -0.5337 C.2     
  13 O13            7.2593     1.1883    -0.7331 O.2     
  14 O14            6.4229     3.2374    -0.5446 O.3     
  15 C15            3.5807    -2.1353    -0.0418 C.3     
  16 C16            3.4371    -2.6287    -1.4584 C.ar    
  17 C17            4.5585    -2.7725    -2.2574 C.ar    
  18 C18            4.4286    -3.2256    -3.5601 C.ar    
  19 C19            3.1730    -3.5359    -4.0640 C.ar    
  20 C20            2.0499    -3.3915    -3.2612 C.ar    
  21 C21            2.1846    -2.9431    -1.9573 C.ar    
  22 F22            1.0918    -2.8024    -1.1755 F       
  23 F23            0.8267    -3.6929    -3.7494 F       
  24 F24            5.7804    -2.4704    -1.7665 F       
  25 F25            5.5231    -3.3648    -4.3397 F       
  26 O26            3.0433    -3.9804    -5.3429 O.3     
  27 C27            3.1161    -5.3925    -5.5494 C.3     
  28 H28           -0.7430     2.0436     0.8629 H       
  29 H29           -0.7898    -0.4151     0.8486 H       
  30 H30            1.2557    -1.6999     0.4267 H       
  31 H31            1.3637     3.2450     0.4600 H       
  32 H32            5.6946    -0.7039    -0.4459 H       
  33 H33            7.3068     3.5903    -0.7154 H       
  34 H34            4.4937    -2.5415     0.3937 H       
  35 H35            2.7220    -2.4610     0.5452 H       
  36 H36            4.0838    -5.7602    -5.2083 H       
  37 H37            2.3220    -5.8834    -4.9867 H       
  38 H38            2.9979    -5.6110    -6.6107 H       
@<TRIPOS>BOND
   1    1    2 ar
   2    1    6 ar
   3    1   28 1
   4    2    3 ar
   5    2   29 1
   6    3    4 ar
   7    3   30 1
   8    4    5 ar
   9    4    7 1
  10    5    6 ar
  11    5   10 1
  12    6   31 1
  13    7    8 1
  14    7   15 1
  15    8    9 2
  16    8   32 1
  17    9   10 1
  18    9   12 1
  19   10   11 2
  20   12   13 2
  21   12   14 1
  22   14   33 1
  23   15   16 1
  24   15   34 1
  25   15   35 1
  26   16   17 ar
  27   16   21 ar
  28   17   18 ar
  29   17   24 1
  30   18   19 ar
  31   18   25 1
  32   19   20 ar
  33   19   26 1
  34   20   21 ar
  35   20   23 1
  36   21   22 1
  37   26   27 1
  38   27   36 1
  39   27   37 1
  40   27   38 1

#	End of record

