#	Name: ASD01811586
#	Creating user name:	WinNT
#	Creation time:	15. 06. 2019 19:27

#	Modifying user name:	WinNT
#	Modification time:	15. 06. 2019 19:27

#	Program:	/corina/corina34_cracker 3.40 0067  02.08.2006

@<TRIPOS>MOLECULE
ASD01811586
  58   62    0    0    0
SMALL
NO_CHARGES


@<TRIPOS>ATOM
   1 C1            -8.0532     2.1821     2.3698 C.1     
   2 C2            -6.8840     2.9793     2.1500 C.ar    
   3 C3            -5.6351     2.5257     2.5792 C.ar    
   4 C4            -4.5130     3.2987     2.3643 C.ar    
   5 C5            -4.6231     4.5212     1.7256 C.ar    
   6 C6            -5.8576     4.9769     1.2982 C.ar    
   7 C7            -6.9870     4.2110     1.5005 C.ar    
   8 N8            -8.9806     1.5497     2.5441 N.1     
   9 N9            -1.9393     7.7868     1.4940 N.am    
  10 C10           -2.4429     7.2803     0.2100 C.3     
  11 C11           -3.7049     6.4511     0.4677 C.3     
  12 C12           -3.3928     5.3603     1.4948 C.3     
  13 C13           -2.9620     6.0070     2.8133 C.3     
  14 C14           -1.6916     6.8312     2.5821 C.3     
  15 F15           -2.3590     4.5495     1.0140 F       
  16 C16           -1.7039     9.1023     1.6685 C.2     
  17 C17           -1.2865     9.6091     2.9928 C.ar    
  18 C18           -2.0174    10.6237     3.6160 C.ar    
  19 C19           -1.6295    11.0982     4.8522 C.ar    
  20 C20           -0.5161    10.5737     5.4824 C.ar    
  21 C21            0.2235     9.5585     4.8696 C.ar    
  22 C22           -0.1667     9.0718     3.6245 C.ar    
  23 O23           -1.8347     9.8720     0.7368 O.2     
  24 C24            1.4146     8.9984     5.5444 C.2     
  25 N25            2.2788     8.0820     5.0115 N.pl3   
  26 C26            3.2266     7.8412     5.9547 C.2     
  27 C27            2.9249     8.6052     7.0332 C.2     
  28 N28            1.8264     9.3020     6.7589 N.2     
  29 C29            4.4188     6.9214     5.8983 C.3     
  30 C30            3.7584     8.6021     8.2923 C.3     
  31 C31            4.6625     7.3616     8.2517 C.3     
  32 O32            5.2999     7.2721     6.9745 O.3     
  33 C33           -3.2319    11.2016     2.9363 C.3     
  34 Cl34          -0.0357    11.1777     7.0375 Cl      
  35 H35           -5.5479     1.5720     3.0785 H       
  36 H36           -3.5463     2.9491     2.6957 H       
  37 H37           -5.9365     5.9322     0.8006 H       
  38 H38           -7.9493     4.5657     1.1621 H       
  39 H39           -2.6835     8.1183    -0.4443 H       
  40 H40           -1.6837     6.6543    -0.2589 H       
  41 H41           -4.4931     7.0983     0.8525 H       
  42 H42           -4.0340     5.9904    -0.4636 H       
  43 H43           -3.7572     6.6583     3.1760 H       
  44 H44           -2.7624     5.2301     3.5514 H       
  45 H45           -0.8712     6.1684     2.3067 H       
  46 H46           -1.4365     7.3727     3.4930 H       
  47 H47           -2.1978    11.8829     5.3295 H       
  48 H48            0.3990     8.2845     3.1484 H       
  49 H49            2.2251     7.6809     4.1300 H       
  50 H50            4.0923     5.8876     6.0113 H       
  51 H51            4.9339     7.0438     4.9455 H       
  52 H52            4.3697     9.5036     8.3328 H       
  53 H53            3.1078     8.5566     9.1658 H       
  54 H54            5.4208     7.4398     9.0308 H       
  55 H55            4.0608     6.4685     8.4204 H       
  56 H56           -4.1007    10.5809     3.1555 H       
  57 H57           -3.4064    12.2133     3.3026 H       
  58 H58           -3.0671    11.2285     1.8592 H       
@<TRIPOS>BOND
   1    1    2 1
   2    1    8 3
   3    2    3 ar
   4    2    7 ar
   5    3    4 ar
   6    3   35 1
   7    4    5 ar
   8    4   36 1
   9    5    6 ar
  10    5   12 1
  11    6    7 ar
  12    6   37 1
  13    7   38 1
  14    9   10 1
  15    9   14 1
  16    9   16 am
  17   10   11 1
  18   10   39 1
  19   10   40 1
  20   11   12 1
  21   11   41 1
  22   11   42 1
  23   12   13 1
  24   12   15 1
  25   13   14 1
  26   13   43 1
  27   13   44 1
  28   14   45 1
  29   14   46 1
  30   16   17 1
  31   16   23 2
  32   17   18 ar
  33   17   22 ar
  34   18   19 ar
  35   18   33 1
  36   19   20 ar
  37   19   47 1
  38   20   21 ar
  39   20   34 1
  40   21   22 ar
  41   21   24 1
  42   22   48 1
  43   24   25 1
  44   24   28 2
  45   25   26 1
  46   25   49 1
  47   26   27 2
  48   26   29 1
  49   27   28 1
  50   27   30 1
  51   29   32 1
  52   29   50 1
  53   29   51 1
  54   30   31 1
  55   30   52 1
  56   30   53 1
  57   31   32 1
  58   31   54 1
  59   31   55 1
  60   33   56 1
  61   33   57 1
  62   33   58 1

#	End of record

