#	Name: ASD03230001
#	Creating user name:	WinNT
#	Creation time:	15. 06. 2019 20:34

#	Modifying user name:	WinNT
#	Modification time:	15. 06. 2019 20:34

#	Program:	/corina/corina34_cracker 3.40 0067  02.08.2006

@<TRIPOS>MOLECULE
ASD03230001
  60   62    0    0    0
SMALL
NO_CHARGES


@<TRIPOS>ATOM
   1 C1            -0.0158     1.3151     0.0093 C.2     
   2 C2             0.0021    -0.0041     0.0020 C.2     
   3 C3             1.2504    -0.8403    -0.0091 C.3     
   4 C4             2.1268    -0.5049     1.1959 C.3     
   5 C5             1.1858     2.1554     0.0023 C.2     
   6 C6             1.0658     3.4776     0.1020 C.2     
   7 C7             2.2995     4.3476     0.1080 C.3     
   8 C8             2.6812     4.6694     1.5520 C.3     
   9 C9             4.8150     2.7260     1.7323 C.2     
  10 C10            5.0927     4.1623     1.7583 C.2     
  11 C11            4.1223     5.0695     1.6639 C.2     
  12 C12            3.2621    -1.5215     1.3272 C.3     
  13 C13            3.9191    -1.3955     2.7034 C.3     
  14 C14            5.4455     0.4356     2.0107 C.3     
  15 O15            5.7656     1.8426     2.1096 O.3     
  16 O16            5.0493    -2.2348     2.8168 O.3     
  17 C17            6.3159    -1.9046     2.3012 C.3     
  18 C18            6.6599    -0.4188     2.3703 C.3     
  19 C19            6.4483    -2.3902     0.8520 C.3     
  20 N20            7.7701    -2.0662     0.3651 N.am    
  21 C21            8.5605    -3.0535    -0.0467 C.2     
  22 S22            7.7191    -4.5977     0.1265 S.3     
  23 C23            6.1797    -3.9000     0.8035 C.3     
  24 C24            4.4909     6.5372     1.6704 C.3     
  25 O25            3.7301     2.3114     1.3838 O.2     
  26 C26            4.2988     0.0669     2.9602 C.3     
  27 O27            7.3071    -2.6137     3.0767 O.3     
  28 H28            5.7077    -1.8790     0.2371 H       
  29 C29            2.0190    -0.6417    -1.3141 C.3     
  30 O30            9.6894    -2.9147    -0.4774 O.2     
  31 H31           -0.9873     1.8144     0.0165 H       
  32 H32           -0.9583    -0.5264     0.0050 H       
  33 H33            0.9596    -1.8996     0.0597 H       
  34 H34            2.5518     0.4895     1.0799 H       
  35 H35            1.5188    -0.5306     2.1028 H       
  36 H36            2.1697     1.7290    -0.0936 H       
  37 H37            0.0853     3.9199     0.1784 H       
  38 H38            3.1184     3.8230    -0.3828 H       
  39 H39            2.0896     5.2745    -0.4280 H       
  40 H40            2.0579     5.4976     1.9034 H       
  41 H41            2.4882     3.8038     2.1834 H       
  42 H42            6.1213     4.4987     1.8583 H       
  43 H43            2.8591    -2.5287     1.2121 H       
  44 H44            4.0003    -1.3352     0.5494 H       
  45 H45            3.1820    -1.6912     3.4666 H       
  46 H46            5.1408     0.2139     0.9842 H       
  47 H47            7.4731    -0.2013     1.6716 H       
  48 H48            6.9930    -0.1675     3.3807 H       
  49 H49            8.0750    -1.1457     0.3388 H       
  50 H50            5.9923    -4.2874     1.8049 H       
  51 H51            5.3391    -4.1178     0.1447 H       
  52 H52            4.4953     6.9061     2.6961 H       
  53 H53            5.4816     6.6649     1.2341 H       
  54 H54            3.7614     7.0976     1.0858 H       
  55 H55            3.4427     0.7116     2.7893 H       
  56 H56            4.6367     0.1776     3.9925 H       
  57 H57            7.2999    -2.3949     4.0186 H       
  58 H58            2.2960     0.4075    -1.4165 H       
  59 H59            2.9196    -1.2557    -1.3025 H       
  60 H60            1.3900    -0.9352    -2.1545 H       
@<TRIPOS>BOND
   1    1    2 2
   2    1    5 1
   3    1   31 1
   4    2    3 1
   5    2   32 1
   6    3    4 1
   7    3   29 1
   8    3   33 1
   9    4   12 1
  10    4   34 1
  11    4   35 1
  12    5    6 2
  13    5   36 1
  14    6    7 1
  15    6   37 1
  16    7    8 1
  17    7   38 1
  18    7   39 1
  19    8   11 1
  20    8   40 1
  21    8   41 1
  22    9   10 1
  23    9   25 2
  24    9   15 1
  25   10   11 2
  26   10   42 1
  27   11   24 1
  28   12   13 1
  29   12   43 1
  30   12   44 1
  31   13   16 1
  32   13   26 1
  33   13   45 1
  34   14   15 1
  35   14   18 1
  36   14   26 1
  37   14   46 1
  38   16   17 1
  39   17   19 1
  40   17   18 1
  41   17   27 1
  42   18   47 1
  43   18   48 1
  44   19   20 1
  45   19   23 1
  46   19   28 1
  47   20   21 am
  48   20   49 1
  49   21   22 1
  50   21   30 2
  51   22   23 1
  52   23   50 1
  53   23   51 1
  54   24   52 1
  55   24   53 1
  56   24   54 1
  57   26   55 1
  58   26   56 1
  59   27   57 1
  60   29   58 1
  61   29   59 1
  62   29   60 1

#	End of record

