#	Name: ASD01410400
#	Creating user name:	WinNT
#	Creation time:	15. 06. 2019 19:17

#	Modifying user name:	WinNT
#	Modification time:	15. 06. 2019 19:17

#	Program:	/corina/corina34_cracker 3.40 0067  02.08.2006

@<TRIPOS>MOLECULE
ASD01410400
  41   43    0    0    0
SMALL
NO_CHARGES


@<TRIPOS>ATOM
   1 S1             0.0568     1.7563    -0.6027 S.3     
   2 C2             0.1392     0.0021    -0.8403 C.2     
   3 N3             1.4178    -0.3548    -0.6757 N.am    
   4 C4             2.3215     0.5680    -0.3909 C.2     
   5 C5             1.7933     1.9383    -0.2836 C.2     
   6 O6             3.4981     0.3049    -0.2296 O.2     
   7 S7            -1.1693    -1.0383    -1.2098 S.2     
   8 C8             2.4761     3.0770    -0.0051 C.2     
   9 C9             1.8034     4.3790    -0.1020 C.ar    
  10 C10            2.3196     5.4870     0.5829 C.ar    
  11 C11            1.6942     6.6970     0.4927 C.ar    
  12 C12            0.5367     6.8310    -0.2844 C.ar    
  13 C13            0.0205     5.7235    -0.9691 C.ar    
  14 C14            0.6488     4.5147    -0.8839 C.ar    
  15 N15            1.7971    -1.6974    -0.8037 N.am    
  16 S16            2.2581    -2.2905    -2.2796 S.o2    
  17 O17            2.7210    -3.6147    -2.0531 O.2     
  18 O18            1.2069    -1.9786    -3.1835 O.2     
  19 C19            3.6577    -1.3568    -2.8029 C.ar    
  20 C20            4.9320    -1.7742    -2.4667 C.ar    
  21 C21            6.0300    -1.0417    -2.8772 C.ar    
  22 C22            5.8539     0.1080    -3.6243 C.ar    
  23 C23            4.5797     0.5249    -3.9612 C.ar    
  24 C24            3.4818    -0.2100    -3.5544 C.ar    
  25 C25           -0.1369     8.1340    -0.3809 C.2     
  26 C26           -1.3824     8.2783    -1.2170 C.3     
  27 O27            0.3098     9.0930     0.2122 O.2     
  28 H28            3.5144     3.0260     0.2879 H       
  29 H29            3.2120     5.3837     1.1824 H       
  30 H30            2.0919     7.5510     1.0209 H       
  31 H31           -0.8721     5.8271    -1.5682 H       
  32 H32            0.2534     3.6619    -1.4157 H       
  33 H33            1.7897    -2.2796    -0.0279 H       
  34 H34            5.0696    -2.6724    -1.8831 H       
  35 H35            7.0255    -1.3674    -2.6140 H       
  36 H36            6.7118     0.6807    -3.9444 H       
  37 H37            4.4421     1.4234    -4.5445 H       
  38 H38            2.4863     0.1157    -3.8176 H       
  39 H39           -2.2587     8.0759    -0.6013 H       
  40 H40           -1.4408     9.2935    -1.6096 H       
  41 H41           -1.3484     7.5700    -2.0448 H       
@<TRIPOS>BOND
   1    1    2 1
   2    1    5 1
   3    2    3 am
   4    2    7 2
   5    3    4 am
   6    3   15 1
   7    4    5 1
   8    4    6 2
   9    5    8 2
  10    8    9 1
  11    8   28 1
  12    9   10 ar
  13    9   14 ar
  14   10   11 ar
  15   10   29 1
  16   11   12 ar
  17   11   30 1
  18   12   13 ar
  19   12   25 1
  20   13   14 ar
  21   13   31 1
  22   14   32 1
  23   15   16 am
  24   15   33 1
  25   16   17 2
  26   16   18 2
  27   16   19 1
  28   19   20 ar
  29   19   24 ar
  30   20   21 ar
  31   20   34 1
  32   21   22 ar
  33   21   35 1
  34   22   23 ar
  35   22   36 1
  36   23   24 ar
  37   23   37 1
  38   24   38 1
  39   25   26 1
  40   25   27 2
  41   26   39 1
  42   26   40 1
  43   26   41 1

#	End of record

