#	Name: ASD03091601
#	Creating user name:	WinNT
#	Creation time:	15. 06. 2019 20:31

#	Modifying user name:	WinNT
#	Modification time:	15. 06. 2019 20:31

#	Program:	/corina/corina34_cracker 3.40 0067  02.08.2006

@<TRIPOS>MOLECULE
ASD03091601
  35   36    0    0    0
SMALL
NO_CHARGES


@<TRIPOS>ATOM
   1 C1            -0.0727     1.1444     0.6953 C.2     
   2 C2            -0.0056    -0.0290     0.0553 C.2     
   3 C3             1.2753    -0.5929    -0.0436 C.ar    
   4 C4             2.2602     0.2003     0.5612 C.ar    
   5 S5             1.5187     1.6453     1.2392 S.3     
   6 C6             3.5932    -0.2172     0.5532 C.ar    
   7 C7             3.9427    -1.4100    -0.0493 C.ar    
   8 C8             2.9635    -2.2012    -0.6525 C.ar    
   9 C9             1.6631    -1.8109    -0.6539 C.ar    
  10 C10           -1.3061     1.9096     0.9075 C.2     
  11 O11           -2.3653     1.4841     0.4885 O.2     
  12 O12           -1.2652     3.0852     1.5673 O.3     
  13 N13            5.2774    -1.8248    -0.0554 N.am    
  14 C14            5.5762    -3.1357     0.0373 C.2     
  15 O15            4.6924    -3.9485     0.2243 O.2     
  16 O16            6.8538    -3.5448    -0.0773 O.3     
  17 C17            7.1017    -4.9712     0.0330 C.3     
  18 C18            6.3338    -5.7087    -1.0658 C.3     
  19 C19            8.5996    -5.2421    -0.1219 C.3     
  20 C20            6.6329    -5.4660     1.4028 C.3     
  21 H21           -0.8799    -0.5104    -0.3575 H       
  22 H22            4.3522     0.3940     1.0188 H       
  23 H23            3.2430    -3.1324    -1.1227 H       
  24 H24            0.9176    -2.4349    -1.1243 H       
  25 H25           -2.1035     3.5532     1.6826 H       
  26 H26            5.9887    -1.1691    -0.1264 H       
  27 H27            6.6678    -5.3563    -2.0417 H       
  28 H28            6.5199    -6.7795    -0.9831 H       
  29 H29            5.2667    -5.5158    -0.9555 H       
  30 H30            9.1466    -4.7167     0.6609 H       
  31 H31            8.7856    -6.3129    -0.0391 H       
  32 H32            8.9335    -4.8896    -1.0977 H       
  33 H33            5.5658    -5.2730     1.5131 H       
  34 H34            6.8190    -6.5368     1.4855 H       
  35 H35            7.1799    -4.9406     2.1856 H       
@<TRIPOS>BOND
   1    1    2 2
   2    1    5 1
   3    1   10 1
   4    2    3 1
   5    2   21 1
   6    3    4 ar
   7    3    9 ar
   8    4    5 1
   9    4    6 ar
  10    6    7 ar
  11    6   22 1
  12    7    8 ar
  13    7   13 1
  14    8    9 ar
  15    8   23 1
  16    9   24 1
  17   10   11 2
  18   10   12 1
  19   12   25 1
  20   13   14 am
  21   13   26 1
  22   14   15 2
  23   14   16 1
  24   16   17 1
  25   17   18 1
  26   17   20 1
  27   17   19 1
  28   18   27 1
  29   18   28 1
  30   18   29 1
  31   19   30 1
  32   19   31 1
  33   19   32 1
  34   20   33 1
  35   20   34 1
  36   20   35 1

#	End of record

