#	Name: ASD01816422
#	Creating user name:	WinNT
#	Creation time:	15. 06. 2019 19:35

#	Modifying user name:	WinNT
#	Modification time:	15. 06. 2019 19:35

#	Program:	/corina/corina34_cracker 3.40 0067  02.08.2006

@<TRIPOS>MOLECULE
ASD01816422
  54   59    0    0    0
SMALL
NO_CHARGES


@<TRIPOS>ATOM
   1 C1            -0.0167     1.3813     0.0096 C.ar    
   2 C2             0.0021    -0.0041     0.0020 C.ar    
   3 C3             1.1984    -0.6909    -0.0127 C.ar    
   4 C4             2.4015     0.0059    -0.0200 C.ar    
   5 C5             2.3790     1.4106    -0.0127 C.ar    
   6 C6             1.1663     2.0916     0.0022 C.ar    
   7 N7             3.6053    -0.6772    -0.0338 N.pl3   
   8 C8             4.7970    -0.0586    -0.0414 C.2     
   9 C9             4.9000     1.3103    -0.0359 C.2     
  10 C10            3.6670     2.1302    -0.0207 C.2     
  11 C11            5.9971     2.2730    -0.0414 C.2     
  12 N12            5.4245     3.4961    -0.0308 N.am    
  13 N13            4.0323     3.3799    -0.0185 N.2     
  14 O14            7.1913     2.0230    -0.0528 O.2     
  15 C15            3.5779    -2.1419    -0.0399 C.3     
  16 C16            3.5557    -2.6380    -1.4627 C.ar    
  17 C17            4.7437    -2.8875    -2.1251 C.ar    
  18 C18            4.7266    -3.3417    -3.4293 C.ar    
  19 C19            3.5150    -3.5483    -4.0751 C.ar    
  20 C20            2.3239    -3.2973    -3.4073 C.ar    
  21 C21            2.3474    -2.8481    -2.1014 C.ar    
  22 N22            3.4944    -4.0089    -5.3990 N.pl3   
  23 C23            2.3897    -4.2503    -6.1405 C.2     
  24 C24            2.7965    -4.6801    -7.3574 C.2     
  25 C25            4.1955    -4.7025    -7.3609 C.2     
  26 N26            4.6147    -4.2947    -6.1900 N.2     
  27 C27            6.1243     4.7046    -0.0316 C.ar    
  28 C28            5.4228     5.9100    -0.0199 C.ar    
  29 C29            6.1335     7.1025    -0.0208 C.ar    
  30 C30            7.5199     7.0456    -0.0334 C.ar    
  31 C31            8.1471     5.8151    -0.0445 C.ar    
  32 N32            7.4473     4.6967    -0.0379 N.ar    
  33 O33            4.0633     5.9170    -0.0083 O.3     
  34 C34            3.4212     7.1936     0.0032 C.3     
  35 H35           -0.9602     1.9068     0.0170 H       
  36 H36           -0.9289    -0.5515     0.0080 H       
  37 H37            1.2004    -1.7709    -0.0181 H       
  38 H38            1.1506     3.1715     0.0074 H       
  39 H39            5.6983    -0.6536    -0.0517 H       
  40 H40            4.4655    -2.5240     0.4643 H       
  41 H41            2.6859    -2.4908     0.4805 H       
  42 H42            5.6858    -2.7266    -1.6222 H       
  43 H43            5.6547    -3.5358    -3.9463 H       
  44 H44            1.3800    -3.4567    -3.9073 H       
  45 H45            1.4212    -2.6527    -1.5814 H       
  46 H46            1.3665    -4.1235    -5.8190 H       
  47 H47            2.1546    -4.9571    -8.1807 H       
  48 H48            4.8218    -5.0005    -8.1888 H       
  49 H49            5.6194     8.0523    -0.0124 H       
  50 H50            8.1029     7.9548    -0.0348 H       
  51 H51            9.2260     5.7677    -0.0543 H       
  52 H52            2.3399     7.0564     0.0118 H       
  53 H53            3.7245     7.7449     0.8932 H       
  54 H54            3.7093     7.7533    -0.8867 H       
@<TRIPOS>BOND
   1    1    2 ar
   2    1    6 ar
   3    1   35 1
   4    2    3 ar
   5    2   36 1
   6    3    4 ar
   7    3   37 1
   8    4    5 ar
   9    4    7 1
  10    5    6 ar
  11    5   10 1
  12    6   38 1
  13    7    8 1
  14    7   15 1
  15    8    9 2
  16    8   39 1
  17    9   10 1
  18    9   11 1
  19   10   13 2
  20   11   12 am
  21   11   14 2
  22   12   13 1
  23   12   27 1
  24   15   16 1
  25   15   40 1
  26   15   41 1
  27   16   17 ar
  28   16   21 ar
  29   17   18 ar
  30   17   42 1
  31   18   19 ar
  32   18   43 1
  33   19   20 ar
  34   19   22 1
  35   20   21 ar
  36   20   44 1
  37   21   45 1
  38   22   23 1
  39   22   26 1
  40   23   24 2
  41   23   46 1
  42   24   25 1
  43   24   47 1
  44   25   26 2
  45   25   48 1
  46   27   28 ar
  47   27   32 ar
  48   28   29 ar
  49   28   33 1
  50   29   30 ar
  51   29   49 1
  52   30   31 ar
  53   30   50 1
  54   31   32 ar
  55   31   51 1
  56   33   34 1
  57   34   52 1
  58   34   53 1
  59   34   54 1

#	End of record

