#	Name: ASD01914424
#	Creating user name:	WinNT
#	Creation time:	15. 06. 2019 20:03

#	Modifying user name:	WinNT
#	Modification time:	15. 06. 2019 20:03

#	Program:	/corina/corina34_cracker 3.40 0067  02.08.2006

@<TRIPOS>MOLECULE
ASD01914424
  55   59    0    0    0
SMALL
NO_CHARGES


@<TRIPOS>ATOM
   1 C1            -0.0167     1.3769     0.0096 C.ar    
   2 C2             0.0021    -0.0041     0.0020 C.ar    
   3 C3             1.2140    -0.6809    -0.0132 C.ar    
   4 C4             2.4051     0.0320    -0.0208 C.ar    
   5 C5             2.3825     1.4129    -0.0132 C.ar    
   6 C6             1.1726     2.0864     0.0021 C.ar    
   7 N7             1.2350    -2.0834    -0.0205 N.pl3   
   8 C8             0.5464    -2.9100     0.8264 C.2     
   9 C9             0.8560    -4.1831     0.4670 C.2     
  10 N10            1.7120    -4.1229    -0.5732 N.2     
  11 C11            1.9379    -2.8743    -0.8731 C.2     
  12 C12            0.3436    -5.4202     1.1060 C.ar    
  13 C13           -0.6194    -5.3408     2.1099 C.ar    
  14 C14           -1.0932    -6.4941     2.7016 C.ar    
  15 C15           -0.6124    -7.7293     2.2992 C.ar    
  16 C16            0.3453    -7.8129     1.3013 C.ar    
  17 C17            0.8200    -6.6655     0.7000 C.ar    
  18 C18            2.8398    -2.3875    -1.9780 C.3     
  19 O19            0.8611    -2.5115    -3.2581 O.2     
  20 C20            2.0441    -2.2445    -3.2497 C.2     
  21 N21            2.6471    -1.8198    -4.3778 N.am    
  22 F22            1.1524     3.4372     0.0100 F       
  23 F23           -1.0783    -8.8557     2.8817 F       
  24 C24            4.0854    -1.4959    -4.3906 C.3     
  25 C25            0.8645    -9.1596     0.8677 C.3     
  26 C26            1.8888    -1.6734    -5.6293 C.3     
  27 C27            1.8721    -0.1948    -6.0369 C.3     
  28 C28            3.2629     0.3675    -5.8864 C.2     
  29 C29            4.2470    -0.2058    -5.1560 C.2     
  30 N30            3.7600     1.4885    -6.4259 N.2     
  31 C31            5.0019     1.6181    -6.0467 C.2     
  32 O32            5.3292     0.5773    -5.2549 O.3     
  33 C33            5.9235     2.7462    -6.4327 C.3     
  34 H34           -0.9594     1.9038     0.0169 H       
  35 H35           -0.9256    -0.5571     0.0083 H       
  36 H36            3.3489    -0.4929    -0.0323 H       
  37 H37            3.3090     1.9679    -0.0191 H       
  38 H38           -0.1145    -2.6085     1.6256 H       
  39 H39           -0.9943    -4.3782     2.4248 H       
  40 H40           -1.8396    -6.4335     3.4798 H       
  41 H41            1.5664    -6.7316    -0.0778 H       
  42 H42            3.2622    -1.4210    -1.7030 H       
  43 H43            3.6454    -3.1054    -2.1322 H       
  44 H44            4.4462    -1.3693    -3.3698 H       
  45 H45            4.6408    -2.2928    -4.8852 H       
  46 H46            0.2469    -9.5428     0.0553 H       
  47 H47            1.8942    -9.0588     0.5249 H       
  48 H48            0.8277    -9.8513     1.7093 H       
  49 H49            2.3637    -2.2623    -6.4141 H       
  50 H50            0.8669    -2.0214    -5.4790 H       
  51 H51            1.5526    -0.1058    -7.0752 H       
  52 H52            1.1848     0.3538    -5.3929 H       
  53 H53            5.8387     3.5509    -5.7023 H       
  54 H54            6.9513     2.3839    -6.4564 H       
  55 H55            5.6472     3.1199    -7.4187 H       
@<TRIPOS>BOND
   1    1    2 ar
   2    1    6 ar
   3    1   34 1
   4    2    3 ar
   5    2   35 1
   6    3    4 ar
   7    3    7 1
   8    4    5 ar
   9    4   36 1
  10    5    6 ar
  11    5   37 1
  12    6   22 1
  13    7    8 1
  14    7   11 1
  15    8    9 2
  16    8   38 1
  17    9   10 1
  18    9   12 1
  19   10   11 2
  20   11   18 1
  21   12   13 ar
  22   12   17 ar
  23   13   14 ar
  24   13   39 1
  25   14   15 ar
  26   14   40 1
  27   15   16 ar
  28   15   23 1
  29   16   17 ar
  30   16   25 1
  31   17   41 1
  32   18   20 1
  33   18   42 1
  34   18   43 1
  35   19   20 2
  36   20   21 am
  37   21   26 1
  38   21   24 1
  39   24   29 1
  40   24   44 1
  41   24   45 1
  42   25   46 1
  43   25   47 1
  44   25   48 1
  45   26   27 1
  46   26   49 1
  47   26   50 1
  48   27   28 1
  49   27   51 1
  50   27   52 1
  51   28   29 2
  52   28   30 1
  53   29   32 1
  54   30   31 2
  55   31   32 1
  56   31   33 1
  57   33   53 1
  58   33   54 1
  59   33   55 1

#	End of record

