#	Name: ASD03081347
#	Creating user name:	WinNT
#	Creation time:	15. 06. 2019 20:27

#	Modifying user name:	WinNT
#	Modification time:	15. 06. 2019 20:27

#	Program:	/corina/corina34_cracker 3.40 0067  02.08.2006

@<TRIPOS>MOLECULE
ASD03081347
  29   31    0    0    0
SMALL
NO_CHARGES


@<TRIPOS>ATOM
   1 O1            -0.0162     1.3444     0.0094 O.3     
   2 C2             0.0021    -0.0041     0.0020 C.2     
   3 N3             1.2610    -0.3804    -0.0120 N.2     
   4 N4             2.0179     0.6599    -0.0137 N.2     
   5 C5             1.2727     1.7416    -0.0007 C.2     
   6 C6             0.8550     4.2023     0.0156 C.ar    
   7 C7             1.7575     3.1373     0.0017 C.ar    
   8 C8             3.1299     3.4142    -0.0094 C.ar    
   9 C9             3.5317     4.7385    -0.0061 C.ar    
  10 C10            2.5742     5.7366     0.0079 C.ar    
  11 N11            1.2872     5.4461     0.0182 N.ar    
  12 C12           -1.1764    -0.8943     0.0089 C.ar    
  13 C13           -2.4658    -0.3530     0.0246 C.ar    
  14 C14           -3.5631    -1.1931     0.0310 C.ar    
  15 C15           -3.3870    -2.5650     0.0224 C.ar    
  16 C16           -2.1135    -3.1060     0.0074 C.ar    
  17 C17           -1.0087    -2.2800    -0.0059 C.ar    
  18 C18           -1.9330    -4.6021    -0.0014 C.3     
  19 F19           -3.1866    -5.2231     0.0080 F       
  20 F20           -1.2337    -4.9807    -1.1524 F       
  21 F21           -1.2112    -4.9914     1.1320 F       
  22 F22           -2.6382     0.9869     0.0339 F       
  23 H23           -0.2067     4.0045     0.0197 H       
  24 H24            3.8562     2.6150    -0.0199 H       
  25 H25            4.5819     4.9900    -0.0140 H       
  26 H26            2.8853     6.7708     0.0109 H       
  27 H27           -4.5599    -0.7777     0.0431 H       
  28 H28           -4.2478    -3.2172     0.0279 H       
  29 H29           -0.0158    -2.7047    -0.0230 H       
@<TRIPOS>BOND
   1    1    2 1
   2    1    5 1
   3    2    3 2
   4    2   12 1
   5    3    4 1
   6    4    5 2
   7    5    7 1
   8    6    7 ar
   9    6   11 ar
  10    6   23 1
  11    7    8 ar
  12    8    9 ar
  13    8   24 1
  14    9   10 ar
  15    9   25 1
  16   10   11 ar
  17   10   26 1
  18   12   13 ar
  19   12   17 ar
  20   13   14 ar
  21   13   22 1
  22   14   15 ar
  23   14   27 1
  24   15   16 ar
  25   15   28 1
  26   16   17 ar
  27   16   18 1
  28   17   29 1
  29   18   19 1
  30   18   20 1
  31   18   21 1

#	End of record

