#	Name: ASD04880283
#	Creating user name:	WinNT
#	Creation time:	15. 06. 2019 20:53

#	Modifying user name:	WinNT
#	Modification time:	15. 06. 2019 20:53

#	Program:	/corina/corina34_cracker 3.40 0067  02.08.2006

@<TRIPOS>MOLECULE
ASD04880283
  67   71    0    0    0
SMALL
NO_CHARGES


@<TRIPOS>ATOM
   1 C1            -0.0121     1.4644     0.0386 C.3     
   2 N2             0.0038    -0.0071     0.0404 N.am    
   3 N3             1.3265    -0.4433     0.0810 N.2     
   4 C4             2.1943     0.5090     0.1065 C.2     
   5 C5             1.4817     1.8424     0.0837 C.3     
   6 C6            -1.0835    -0.8028     0.0088 C.2     
   7 C7            -0.9242    -2.2673    -0.1123 C.ar    
   8 O8            -2.1955    -0.3160     0.0798 O.2     
   9 C9            -2.0342    -3.1019    -0.0011 C.ar    
  10 C10            3.6564     0.3266     0.1515 C.ar    
  11 C11            4.5004     1.4393     0.1766 C.ar    
  12 C12            5.8682     1.2664     0.2187 C.ar    
  13 C13            6.4089    -0.0107     0.2361 C.ar    
  14 C14            5.5730    -1.1255     0.2112 C.ar    
  15 C15            4.2015    -0.9603     0.1749 C.ar    
  16 O16            6.1068    -2.3762     0.2285 O.3     
  17 O17            7.7576    -0.1755     0.2771 O.3     
  18 C18            8.5555     1.0097     0.3003 C.3     
  19 C19            5.1912    -3.4729     0.2011 C.3     
  20 C20           -1.8753    -4.4812    -0.1170 C.ar    
  21 C21           -0.6060    -5.0183    -0.3435 C.ar    
  22 C22            0.4902    -4.1854    -0.4526 C.ar    
  23 C23            0.3391    -2.8175    -0.3442 C.ar    
  24 C24           -3.0476    -5.3746     0.0001 C.2     
  25 N25           -2.8922    -6.7087    -0.1122 N.am    
  26 O26           -4.1516    -4.9059     0.1977 O.2     
  27 C27            1.8659     2.6261    -1.1448 C.ar    
  28 C28            2.4439     3.8763    -1.0110 C.ar    
  29 C29            1.6442     2.0897    -2.4010 C.ar    
  30 C30            1.9937     2.8009    -3.5298 C.ar    
  31 C31            2.5725     4.0664    -3.4026 C.ar    
  32 C32            2.7981     4.5994    -2.1308 C.ar    
  33 C33            2.9380     4.8109    -4.5700 C.1     
  34 C34            3.2377     5.4213    -5.5270 C.1     
  35 C35            3.6032     6.1659    -6.6943 C.ar    
  36 C36            4.1820     7.4313    -6.5672 C.ar    
  37 C37            3.3880     5.6281    -7.9660 C.ar    
  38 C38            3.7426     6.3510    -9.0857 C.ar    
  39 C39            4.3105     7.6058    -8.9521 C.ar    
  40 C40            4.5314     8.1426    -7.6960 C.ar    
  41 H41           -0.4760     1.8419    -0.8727 H       
  42 H42           -0.5304     1.8434     0.9194 H       
  43 H43            1.7052     2.4108     0.9864 H       
  44 H44           -3.0135    -2.6816     0.1744 H       
  45 H45            4.0821     2.4349     0.1628 H       
  46 H46            6.5198     2.1275     0.2377 H       
  47 H47            3.5526    -1.8234     0.1556 H       
  48 H48            8.3055     1.5989     1.1827 H       
  49 H49            9.6104     0.7370     0.3325 H       
  50 H50            8.3594     1.5974    -0.5965 H       
  51 H51            4.5369    -3.4217     1.0714 H       
  52 H52            4.5914    -3.4229    -0.7077 H       
  53 H53            5.7467    -4.4106     0.2188 H       
  54 H54           -0.4814    -6.0873    -0.4331 H       
  55 H55            1.4695    -4.6059    -0.6275 H       
  56 H56            1.2005    -2.1717    -0.4305 H       
  57 H57           -2.0112    -7.0827    -0.2698 H       
  58 H58           -3.6613    -7.2947    -0.0354 H       
  59 H59            2.6176     4.2870    -0.0274 H       
  60 H60            1.1967     1.1115    -2.4977 H       
  61 H61            1.8207     2.3807    -4.5095 H       
  62 H62            3.2451     5.5768    -2.0249 H       
  63 H63            4.3550     7.8515    -5.5874 H       
  64 H64            2.9455     4.6486    -8.0717 H       
  65 H65            3.5769     5.9366   -10.0692 H       
  66 H66            4.5865     8.1672    -9.8325 H       
  67 H67            4.9751     9.1225    -7.5994 H       
@<TRIPOS>BOND
   1    1    2 1
   2    1    5 1
   3    1   41 1
   4    1   42 1
   5    2    3 1
   6    2    6 am
   7    3    4 2
   8    4    5 1
   9    4   10 1
  10    5   27 1
  11    5   43 1
  12    6    7 1
  13    6    8 2
  14    7    9 ar
  15    7   23 ar
  16    9   20 ar
  17    9   44 1
  18   10   11 ar
  19   10   15 ar
  20   11   12 ar
  21   11   45 1
  22   12   13 ar
  23   12   46 1
  24   13   14 ar
  25   13   17 1
  26   14   15 ar
  27   14   16 1
  28   15   47 1
  29   16   19 1
  30   17   18 1
  31   18   48 1
  32   18   49 1
  33   18   50 1
  34   19   51 1
  35   19   52 1
  36   19   53 1
  37   20   21 ar
  38   20   24 1
  39   21   22 ar
  40   21   54 1
  41   22   23 ar
  42   22   55 1
  43   23   56 1
  44   24   25 am
  45   24   26 2
  46   25   57 1
  47   25   58 1
  48   27   28 ar
  49   27   29 ar
  50   28   32 ar
  51   28   59 1
  52   29   30 ar
  53   29   60 1
  54   30   31 ar
  55   30   61 1
  56   31   32 ar
  57   31   33 1
  58   32   62 1
  59   33   34 3
  60   34   35 1
  61   35   36 ar
  62   35   37 ar
  63   36   40 ar
  64   36   63 1
  65   37   38 ar
  66   37   64 1
  67   38   39 ar
  68   38   65 1
  69   39   40 ar
  70   39   66 1
  71   40   67 1

#	End of record

