#	Name: ASD01140207
#	Creating user name:	WinNT
#	Creation time:	15. 06. 2019 19:00

#	Modifying user name:	WinNT
#	Modification time:	15. 06. 2019 19:00

#	Program:	/corina/corina34_cracker 3.40 0067  02.08.2006

@<TRIPOS>MOLECULE
ASD01140207
  38   40    0    0    0
SMALL
NO_CHARGES


@<TRIPOS>ATOM
   1 Cl1            1.7480    -3.6101    -3.3387 Cl      
   2 O2            -0.0173     1.4272     0.0099 O.3     
   3 N3             2.2031     1.5852    -0.6381 N.2     
   4 N4             1.2952     3.2520     0.6808 N.pl3   
   5 C5             0.0021    -0.0041     0.0020 C.3     
   6 C6             1.0350    -0.4626    -0.9974 C.ar    
   7 C7             0.3634    -0.5132     1.3736 C.ar    
   8 C8            -1.3750    -0.5347    -0.4016 C.3     
   9 C9             2.1210     0.3732    -1.2700 C.ar    
  10 C10            0.9213    -1.6783    -1.6319 C.ar    
  11 C11            1.1693     2.0675     0.0020 C.2     
  12 C12            0.0234     0.2203     2.4949 C.ar    
  13 C13            1.0300    -1.7165     1.5108 C.ar    
  14 C14            3.0966    -0.0348    -2.1774 C.ar    
  15 C15            1.8919    -2.0769    -2.5373 C.ar    
  16 C16            2.9760    -1.2582    -2.8055 C.ar    
  17 C17            0.3549    -0.2467     3.7530 C.ar    
  18 C18            1.3614    -2.1835     2.7689 C.ar    
  19 C19            2.5766     3.9620     0.6835 C.3     
  20 C20            1.0261    -1.4474     3.8899 C.ar    
  21 C21            2.4473     5.2447     1.5076 C.3     
  22 H22            0.5358     3.6200     1.1592 H       
  23 H23           -1.6270    -0.1708    -1.3977 H       
  24 H24           -1.3572    -1.6246    -0.4068 H       
  25 H25           -2.1219    -0.1869     0.3120 H       
  26 H26            0.0780    -2.3204    -1.4246 H       
  27 H27           -0.5009     1.1584     2.3879 H       
  28 H28            1.2914    -2.2918     0.6350 H       
  29 H29            3.9424     0.6028    -2.3884 H       
  30 H30            3.7301    -1.5779    -3.5095 H       
  31 H31            0.0899     0.3267     4.6290 H       
  32 H32            1.8818    -3.1237     2.8761 H       
  33 H33            3.3444     3.3244     1.1219 H       
  34 H34            2.8545     4.2142    -0.3399 H       
  35 H35            1.2854    -1.8121     4.8728 H       
  36 H36            3.4007     5.7729     1.5096 H       
  37 H37            1.6795     5.8823     1.0692 H       
  38 H38            2.1694     4.9925     2.5309 H       
@<TRIPOS>BOND
   1    1   15 1
   2    2    5 1
   3    2   11 1
   4    3    9 1
   5    3   11 2
   6    4   11 1
   7    4   19 1
   8    4   22 1
   9    5    6 1
  10    5    7 1
  11    5    8 1
  12    6    9 ar
  13    6   10 ar
  14    7   12 ar
  15    7   13 ar
  16    8   23 1
  17    8   24 1
  18    8   25 1
  19    9   14 ar
  20   10   15 ar
  21   10   26 1
  22   12   17 ar
  23   12   27 1
  24   13   18 ar
  25   13   28 1
  26   14   16 ar
  27   14   29 1
  28   15   16 ar
  29   16   30 1
  30   17   20 ar
  31   17   31 1
  32   18   20 ar
  33   18   32 1
  34   19   21 1
  35   19   33 1
  36   19   34 1
  37   20   35 1
  38   21   36 1
  39   21   37 1
  40   21   38 1

#	End of record

