#	Name: ASD01880142
#	Creating user name:	WinNT
#	Creation time:	15. 06. 2019 19:40

#	Modifying user name:	WinNT
#	Modification time:	15. 06. 2019 19:40

#	Program:	/corina/corina34_cracker 3.40 0067  02.08.2006

@<TRIPOS>MOLECULE
ASD01880142
  46   49    0    0    0
SMALL
NO_CHARGES


@<TRIPOS>ATOM
   1 C1            -0.0168     1.3866     0.0097 C.ar    
   2 C2             0.0021    -0.0041     0.0020 C.ar    
   3 C3            -1.1908    -0.7171     0.0091 C.ar    
   4 C4            -2.3920    -0.0608     0.0240 C.ar    
   5 C5            -2.4274     1.3358     0.0323 C.ar    
   6 C6            -1.2195     2.0577     0.0305 C.ar    
   7 C7            -3.8022    -0.6015     0.0346 C.3     
   8 C8            -4.7307     0.6205     0.0505 C.3     
   9 C9            -3.8138     1.8193     0.0485 C.2     
  10 Cl10          -1.2453     3.7935     0.0407 Cl      
  11 Cl11           1.4742     2.2757     0.0002 Cl      
  12 C12           -5.6170     0.6290    -1.1966 C.3     
  13 C13           -6.4659    -0.6435    -1.2277 C.3     
  14 C14           -6.5342     1.8532    -1.1622 C.3     
  15 O15           -4.1620     2.9813     0.0585 O.2     
  16 C16            2.5330    -2.6494    -0.0363 C.ar    
  17 C17            1.1324    -2.0935    -0.0200 C.3     
  18 O18            1.1867    -0.6655    -0.0128 O.3     
  19 C19            3.1847    -2.9099     1.1559 C.ar    
  20 C20            4.4673    -3.4185     1.1476 C.ar    
  21 C21            5.1067    -3.6703    -0.0662 C.ar    
  22 C22            4.4442    -3.4060    -1.2649 C.ar    
  23 C23            3.1597    -2.9023    -1.2433 C.ar    
  24 C24            6.4827    -4.2154    -0.0822 C.2     
  25 N25            7.2203    -4.5093     0.9677 N.2     
  26 N26            8.3646    -4.9620     0.6008 N.2     
  27 N27            8.4446    -4.9916    -0.6854 N.2     
  28 N28            7.2197    -4.5119    -1.1812 N.pl3   
  29 H29           -1.1699    -1.7969     0.0024 H       
  30 H30           -3.9818    -1.1967    -0.8607 H       
  31 H31           -3.9646    -1.2069     0.9263 H       
  32 H32           -5.3449     0.6164     0.9510 H       
  33 H33           -4.9903     0.6695    -2.0875 H       
  34 H34           -7.0927    -0.6840    -0.3368 H       
  35 H35           -7.0973    -0.6374    -2.1162 H       
  36 H36           -5.8125    -1.5156    -1.2522 H       
  37 H37           -7.1609     1.8127    -0.2713 H       
  38 H38           -5.9294     2.7598    -1.1400 H       
  39 H39           -7.1656     1.8592    -2.0507 H       
  40 H40            0.5967    -2.4322    -0.9067 H       
  41 H41            0.6136    -2.4418     0.8731 H       
  42 H42            2.6885    -2.7145     2.0951 H       
  43 H43            4.9753    -3.6208     2.0790 H       
  44 H44            4.9341    -3.5989    -2.2078 H       
  45 H45            2.6456    -2.6975    -2.1708 H       
  46 H46            6.9598    -4.4090    -2.1101 H       
@<TRIPOS>BOND
   1    1    2 ar
   2    1   11 1
   3    1    6 ar
   4    2    3 ar
   5    2   18 1
   6    3    4 ar
   7    3   29 1
   8    4    5 ar
   9    4    7 1
  10    5    6 ar
  11    5    9 1
  12    6   10 1
  13    7    8 1
  14    7   30 1
  15    7   31 1
  16    8    9 1
  17    8   12 1
  18    8   32 1
  19    9   15 2
  20   12   13 1
  21   12   14 1
  22   12   33 1
  23   13   34 1
  24   13   35 1
  25   13   36 1
  26   14   37 1
  27   14   38 1
  28   14   39 1
  29   16   17 1
  30   16   19 ar
  31   16   23 ar
  32   17   18 1
  33   17   40 1
  34   17   41 1
  35   19   20 ar
  36   19   42 1
  37   20   21 ar
  38   20   43 1
  39   21   22 ar
  40   21   24 1
  41   22   23 ar
  42   22   44 1
  43   23   45 1
  44   24   25 2
  45   24   28 1
  46   25   26 1
  47   26   27 2
  48   27   28 1
  49   28   46 1

#	End of record

