#	Name: ASD02560555
#	Creating user name:	WinNT
#	Creation time:	15. 06. 2019 20:25

#	Modifying user name:	WinNT
#	Modification time:	15. 06. 2019 20:25

#	Program:	/corina/corina34_cracker 3.40 0067  02.08.2006

@<TRIPOS>MOLECULE
ASD02560555
  52   55    0    0    0
SMALL
NO_CHARGES


@<TRIPOS>ATOM
   1 N1            -0.0191     1.2805     0.0820 N.2     
   2 N2            -0.0010    -0.0042     0.0570 N.2     
   3 C3             1.1979     1.7475     0.0504 C.2     
   4 N4             2.0452     0.6720     0.0018 N.pl3   
   5 C5             1.2382    -0.4336     0.0077 C.2     
   6 S6             1.7636    -2.1148    -0.0417 S.3     
   7 C7             0.1569    -2.9474    -0.0040 C.3     
   8 C8             0.3635    -4.4397    -0.0392 C.2     
   9 O9             1.4865    -4.8955    -0.0852 O.2     
  10 N10           -0.6996    -5.2679    -0.0196 N.am    
  11 C11            3.4467     0.6983    -0.0443 C.ar    
  12 Br12           1.7001     3.5705     0.0683 Br      
  13 C13            4.1815     0.6880     1.1333 C.ar    
  14 C14            5.5617     0.7135     1.0848 C.ar    
  15 C15            6.2114     0.7497    -0.1353 C.ar    
  16 C16            5.4820     0.7599    -1.3100 C.ar    
  17 C17            4.1017     0.7288    -1.2678 C.ar    
  18 C18           -0.5128    -6.6452    -0.1340 C.ar    
  19 C19           -1.5317    -7.4442    -0.6469 C.ar    
  20 C20           -1.3501    -8.8047    -0.7611 C.ar    
  21 C21           -0.1411    -9.3826    -0.3618 C.ar    
  22 C22            0.8791    -8.5770     0.1520 C.ar    
  23 C23            0.6927    -7.2169     0.2590 C.ar    
  24 C24            0.0571   -10.8389    -0.4820 C.2     
  25 O25           -0.8307   -11.5381    -0.9284 O.2     
  26 Cl26          -3.0320    -6.7249    -1.1421 Cl      
  27 O27            1.2228   -11.3943    -0.0967 O.3     
  28 C28            7.7173     0.7784    -0.1848 C.3     
  29 C29            8.4223    -0.3700    -0.9094 C.3     
  30 C30            8.3749     1.0210    -1.5448 C.3     
  31 C31            3.4742     0.6496     2.4635 C.3     
  32 C32            3.3075     0.7401    -2.5485 C.3     
  33 H33           -0.3720    -2.6752     0.9094 H       
  34 H34           -0.4312    -2.6415    -0.8693 H       
  35 H35           -1.5946    -4.9060     0.0742 H       
  36 H36            6.1339     0.7056     2.0007 H       
  37 H37            5.9921     0.7886    -2.2615 H       
  38 H38           -2.1406    -9.4243    -1.1582 H       
  39 H39            1.8140    -9.0203     0.4613 H       
  40 H40            1.4809    -6.5942     0.6556 H       
  41 H41            1.3060   -12.3528    -0.1945 H       
  42 H42            8.2087     1.1962     0.6939 H       
  43 H43            9.3778    -0.7074    -0.5076 H       
  44 H44            7.7970    -1.1463    -1.3502 H       
  45 H45            7.7183     1.1598    -2.4037 H       
  46 H46            9.2991     1.5987    -1.5611 H       
  47 H47            3.3216    -0.3869     2.7640 H       
  48 H48            4.0804     1.1596     3.2122 H       
  49 H49            2.5090     1.1485     2.3762 H       
  50 H50            3.1385    -0.2843    -2.8802 H       
  51 H51            2.3487     1.2294    -2.3771 H       
  52 H52            3.8609     1.2835    -3.3144 H       
@<TRIPOS>BOND
   1    1    2 1
   2    1    3 2
   3    2    5 2
   4    3    4 1
   5    3   12 1
   6    4    5 1
   7    4   11 1
   8    5    6 1
   9    6    7 1
  10    7    8 1
  11    7   33 1
  12    7   34 1
  13    8    9 2
  14    8   10 am
  15   10   18 1
  16   10   35 1
  17   11   13 ar
  18   11   17 ar
  19   13   14 ar
  20   13   31 1
  21   14   15 ar
  22   14   36 1
  23   15   16 ar
  24   15   28 1
  25   16   17 ar
  26   16   37 1
  27   17   32 1
  28   18   19 ar
  29   18   23 ar
  30   19   20 ar
  31   19   26 1
  32   20   21 ar
  33   20   38 1
  34   21   22 ar
  35   21   24 1
  36   22   23 ar
  37   22   39 1
  38   23   40 1
  39   24   25 2
  40   24   27 1
  41   27   41 1
  42   28   29 1
  43   28   30 1
  44   28   42 1
  45   29   30 1
  46   29   43 1
  47   29   44 1
  48   30   45 1
  49   30   46 1
  50   31   47 1
  51   31   48 1
  52   31   49 1
  53   32   50 1
  54   32   51 1
  55   32   52 1

#	End of record

