#	Name: ASD01030011
#	Creating user name:	WinNT
#	Creation time:	15. 06. 2019 18:58

#	Modifying user name:	WinNT
#	Modification time:	15. 06. 2019 18:58

#	Program:	/corina/corina34_cracker 3.40 0067  02.08.2006

@<TRIPOS>MOLECULE
ASD01030011
  80   83    0    0    0
SMALL
NO_CHARGES


@<TRIPOS>ATOM
   1 S1            -0.0172     1.4168     0.0098 S.o2    
   2 O2             0.0021    -0.0041     0.0020 O.2     
   3 O3             1.1903     2.1659     0.0023 O.2     
   4 O4            -0.6987     1.7901    -1.2989 O.3     
   5 C5            -1.1394     2.0311     1.2958 C.3     
   6 C6            -0.5580     1.7125     2.6748 C.3     
   7 N7            -1.4643     2.2087     3.7133 N.am    
   8 C8            -5.3979     3.5817    15.4069 C.3     
   9 C9            -6.2077     4.4410    16.3800 C.3     
  10 C10           -5.2735     5.0325    17.4376 C.3     
  11 O11           -4.6357     3.9740    18.1552 O.3     
  12 C12           -4.2124     5.8973    16.7544 C.3     
  13 C13           -3.4029     5.0383    15.7805 C.3     
  14 C14           -2.3418     5.9047    15.0991 C.3     
  15 C15           -1.5368     5.0514    14.1165 C.3     
  16 O16           -0.8998     3.9847    14.8226 O.3     
  17 C17           -2.4765     4.4726    13.0577 C.3     
  18 C18           -1.7074     3.5882    12.0946 C.3     
  19 C19           -0.6468     4.2929    11.2415 C.3     
  20 C20           -0.4908     3.3412    10.0239 C.3     
  21 C21           -1.8145     2.5429     9.9213 C.3     
  22 C22           -2.4529     2.7493     8.5462 C.3     
  23 C23           -1.5064     2.2312     7.4616 C.3     
  24 C24           -2.0878     2.5497     6.0826 C.3     
  25 C25           -1.1555     2.0394     5.0143 C.2     
  26 O26           -0.1273     1.4763     5.3251 O.2     
  27 C27           -3.7754     1.9830     8.4777 C.3     
  28 C28           -2.7145     3.1128    11.0126 C.3     
  29 C29           -3.4924     4.3122    10.4675 C.3     
  30 C30           -3.6703     2.1428    11.6786 C.3     
  31 O31           -2.9357     1.0897    12.3058 O.3     
  32 C32           -4.4599     2.9320    12.7365 C.3     
  33 C33           -3.5287     3.5910    13.7485 C.3     
  34 C34           -4.3380     4.4476    14.7232 C.3     
  35 C35           -5.0225     5.5815    13.9573 C.3     
  36 H36           -3.0192     2.8136    14.3178 H       
  37 H37           -2.9569     5.2830    12.5095 H       
  38 H38           -1.2686     2.7426    12.6241 H       
  39 H39           -0.2085     1.5218    -2.0881 H       
  40 H40           -1.2562     3.1098     1.1911 H       
  41 H41           -2.1111     1.5485     1.1909 H       
  42 H42           -0.4412     0.6339     2.7795 H       
  43 H43            0.4137     2.1951     2.7797 H       
  44 H44           -2.2867     2.6590     3.4647 H       
  45 H45           -4.9103     2.7747    15.9539 H       
  46 H46           -6.0636     3.1600    14.6539 H       
  47 H47           -6.6946     5.2484    15.8330 H       
  48 H48           -6.9635     3.8246    16.8667 H       
  49 H49           -5.8506     5.6450    18.1304 H       
  50 H50           -5.2495     3.3844    18.6142 H       
  51 H51           -4.6989     6.7053    16.2080 H       
  52 H52           -3.5463     6.3178    17.5078 H       
  53 H53           -2.9161     4.2304    16.3269 H       
  54 H54           -2.8283     6.7175    14.5600 H       
  55 H55           -1.6724     6.3190    15.8530 H       
  56 H56           -0.7807     5.6698    13.6328 H       
  57 H57           -0.2887     4.2790    15.5119 H       
  58 H58           -0.9986     5.2738    10.9216 H       
  59 H59            0.2929     4.3782    11.7872 H       
  60 H60           -0.3317     3.9204     9.1143 H       
  61 H61            0.3450     2.6606    10.1857 H       
  62 H62           -1.6309     1.4829    10.0965 H       
  63 H63           -2.6399     3.8115     8.3882 H       
  64 H64           -0.5347     2.7137     7.5665 H       
  65 H65           -1.3896     1.1525     7.5663 H       
  66 H66           -3.0595     2.0672     5.9777 H       
  67 H67           -2.2046     3.6284     5.9780 H       
  68 H68           -4.2301     2.1300     7.4981 H       
  69 H69           -3.5884     0.9208     8.6357 H       
  70 H70           -4.4497     2.3521     9.2504 H       
  71 H71           -2.7971     5.0254    10.0247 H       
  72 H72           -4.1977     3.9734     9.7087 H       
  73 H73           -4.0365     4.7924    11.2808 H       
  74 H74           -4.3535     1.7277    10.9376 H       
  75 H75           -3.4902     0.4342    12.7508 H       
  76 H76           -5.0496     3.7027    12.2399 H       
  77 H77           -5.1322     2.2524    13.2603 H       
  78 H78           -5.5986     6.1930    14.6518 H       
  79 H79           -4.2675     6.1985    13.4702 H       
  80 H80           -5.6891     5.1609    13.2044 H       
@<TRIPOS>BOND
   1    1    2 2
   2    1    3 2
   3    1    4 1
   4    1    5 1
   5    4   39 1
   6    5    6 1
   7    5   40 1
   8    5   41 1
   9    6    7 1
  10    6   42 1
  11    6   43 1
  12    7   25 am
  13    7   44 1
  14    8    9 1
  15    8   34 1
  16    8   45 1
  17    8   46 1
  18    9   10 1
  19    9   47 1
  20    9   48 1
  21   10   11 1
  22   10   12 1
  23   10   49 1
  24   11   50 1
  25   12   13 1
  26   12   51 1
  27   12   52 1
  28   13   14 1
  29   13   34 1
  30   13   53 1
  31   14   15 1
  32   14   54 1
  33   14   55 1
  34   15   16 1
  35   15   17 1
  36   15   56 1
  37   16   57 1
  38   17   18 1
  39   17   37 1
  40   17   33 1
  41   18   19 1
  42   18   28 1
  43   18   38 1
  44   19   20 1
  45   19   58 1
  46   19   59 1
  47   20   21 1
  48   20   60 1
  49   20   61 1
  50   21   22 1
  51   21   28 1
  52   21   62 1
  53   22   23 1
  54   22   27 1
  55   22   63 1
  56   23   24 1
  57   23   64 1
  58   23   65 1
  59   24   25 1
  60   24   66 1
  61   24   67 1
  62   25   26 2
  63   27   68 1
  64   27   69 1
  65   27   70 1
  66   28   29 1
  67   28   30 1
  68   29   71 1
  69   29   72 1
  70   29   73 1
  71   30   31 1
  72   30   32 1
  73   30   74 1
  74   31   75 1
  75   32   33 1
  76   32   76 1
  77   32   77 1
  78   33   36 1
  79   33   34 1
  80   34   35 1
  81   35   78 1
  82   35   79 1
  83   35   80 1

#	End of record

