#	Name: ASD01208049
#	Creating user name:	WinNT
#	Creation time:	15. 06. 2019 19:09

#	Modifying user name:	WinNT
#	Modification time:	15. 06. 2019 19:09

#	Program:	/corina/corina34_cracker 3.40 0067  02.08.2006

@<TRIPOS>MOLECULE
ASD01208049
  59   63    0    0    0
SMALL
NO_CHARGES


@<TRIPOS>ATOM
   1 C1            -0.0888     1.4346     0.0255 C.ar    
   2 C2             0.0151     0.0519    -0.0168 C.ar    
   3 C3            -1.1271    -0.7356     0.0272 C.ar    
   4 C4            -2.3761    -0.1432     0.1130 C.ar    
   5 C5            -2.4850     1.2477     0.1558 C.ar    
   6 C6            -1.3335     2.0353     0.1171 C.ar    
   7 C7            -3.8153     1.8843     0.2469 C.2     
   8 C8            -4.0563     3.2272     0.2954 C.2     
   9 N9            -5.0172     1.2270     0.2912 N.pl3   
  10 C10           -6.0215     2.1604     0.3740 C.2     
  11 C11           -5.4395     3.4092     0.3776 C.2     
  12 O12            1.0328     2.2009    -0.0174 O.3     
  13 C13            0.8492     3.6159    -0.0954 C.3     
  14 C14            2.0804     4.2552    -0.7407 C.3     
  15 O15            3.2147     4.0673     0.1080 O.3     
  16 C16            0.6585     4.1838     1.3125 C.3     
  17 O17           -1.0198    -2.0895    -0.0146 O.3     
  18 C18           -1.4896    -2.7331    -1.1153 C.ar    
  19 C19           -1.5233    -4.1235    -1.1447 C.ar    
  20 C20           -1.9401    -2.0017    -2.2054 C.ar    
  21 C21           -2.4182    -2.6509    -3.3242 C.ar    
  22 C22           -2.4491    -4.0455    -3.3607 C.ar    
  23 C23           -2.0000    -4.7795    -2.2612 C.ar    
  24 C24           -2.9615    -4.7442    -4.5586 C.2     
  25 C25           -7.4630     1.8771     0.4427 C.2     
  26 C26            4.4239     4.6301    -0.4050 C.3     
  27 N27           -8.4084     2.7735     0.5211 N.2     
  28 C28           -9.6442     2.3326     0.5734 C.2     
  29 C29           -9.7917     1.0042     0.5399 C.2     
  30 S30           -8.1920     0.2734     0.4246 S.3     
  31 F31           -1.0887    -4.8320    -0.0796 F       
  32 S32           -3.0736    -6.4909    -4.7786 S.3     
  33 C33           -3.7292    -6.2337    -6.3400 C.2     
  34 N34           -3.8070    -4.9611    -6.5578 N.2     
  35 N35           -3.4189    -4.1803    -5.6447 N.2     
  36 C36           -4.1470    -7.3145    -7.3035 C.3     
  37 H37            0.9875    -0.4132    -0.0844 H       
  38 H38           -3.2644    -0.7565     0.1464 H       
  39 H39           -1.4133     3.1118     0.1504 H       
  40 H40           -3.3114     4.0089     0.2742 H       
  41 H41           -5.1382     0.2648     0.2678 H       
  42 H42           -5.9572     4.3554     0.4341 H       
  43 H43           -0.0321     3.8353    -0.6981 H       
  44 H44            2.2683     3.7874    -1.7071 H       
  45 H45            1.9045     5.3216    -0.8813 H       
  46 H46            1.5398     3.9645     1.9152 H       
  47 H47            0.5184     5.2631     1.2530 H       
  48 H48           -0.2186     3.7284     1.7722 H       
  49 H49           -1.9167    -0.9223    -2.1772 H       
  50 H50           -2.7687    -2.0803    -4.1716 H       
  51 H51           -2.0224    -5.8590    -2.2858 H       
  52 H52            4.2966     5.7044    -0.5386 H       
  53 H53            5.2371     4.4452     0.2969 H       
  54 H54            4.6604     4.1701    -1.3644 H       
  55 H55          -10.4893     3.0018     0.6398 H       
  56 H56          -10.7301     0.4707     0.5738 H       
  57 H57           -5.1946    -7.5649    -7.1365 H       
  58 H58           -4.0166    -6.9599    -8.3259 H       
  59 H59           -3.5319    -8.2002    -7.1449 H       
@<TRIPOS>BOND
   1    1    2 ar
   2    1   12 1
   3    1    6 ar
   4    2    3 ar
   5    2   37 1
   6    3    4 ar
   7    3   17 1
   8    4    5 ar
   9    4   38 1
  10    5    6 ar
  11    5    7 1
  12    6   39 1
  13    7    8 2
  14    7    9 1
  15    8   11 1
  16    8   40 1
  17    9   10 1
  18    9   41 1
  19   10   11 2
  20   10   25 1
  21   11   42 1
  22   12   13 1
  23   13   14 1
  24   13   16 1
  25   13   43 1
  26   14   15 1
  27   14   44 1
  28   14   45 1
  29   15   26 1
  30   16   46 1
  31   16   47 1
  32   16   48 1
  33   17   18 1
  34   18   19 ar
  35   18   20 ar
  36   19   31 1
  37   19   23 ar
  38   20   21 ar
  39   20   49 1
  40   21   22 ar
  41   21   50 1
  42   22   23 ar
  43   22   24 1
  44   23   51 1
  45   24   32 1
  46   24   35 2
  47   25   27 2
  48   25   30 1
  49   26   52 1
  50   26   53 1
  51   26   54 1
  52   27   28 1
  53   28   29 2
  54   28   55 1
  55   29   30 1
  56   29   56 1
  57   32   33 1
  58   33   34 2
  59   33   36 1
  60   34   35 1
  61   36   57 1
  62   36   58 1
  63   36   59 1

#	End of record

