#	Name: ASD02038058
#	Creating user name:	WinNT
#	Creation time:	15. 06. 2019 20:16

#	Modifying user name:	WinNT
#	Modification time:	15. 06. 2019 20:16

#	Program:	/corina/corina34_cracker 3.40 0067  02.08.2006

@<TRIPOS>MOLECULE
ASD02038058
  50   52    0    0    0
SMALL
NO_CHARGES


@<TRIPOS>ATOM
   1 O1            -0.4785     1.4711    -0.1232 O.3     
   2 N2             0.8336     3.3855     0.1166 N.am    
   3 C3             0.7219     2.0426     0.0893 C.2     
   4 C4             1.1508     6.7872    -0.0108 C.3     
   5 O5             0.4703     7.6441    -0.9299 O.3     
   6 C6             0.4086     8.9649    -0.6127 C.ar    
   7 C7            -0.2372     9.8522    -1.4611 C.ar    
   8 C8             0.9865     9.4235     0.5621 C.ar    
   9 C9             0.9234    10.7646     0.8853 C.ar    
  10 C10            0.2818    11.6540     0.0340 C.ar    
  11 C11           -0.3002    11.1937    -1.1395 C.ar    
  12 O12            1.7046     1.3477     0.2564 O.2     
  13 N13            0.2169    13.0151     0.3617 N.am    
  14 C14           -0.5240     0.0199    -0.1396 C.3     
  15 C15            1.9232     4.3537     0.3121 C.3     
  16 C16            1.1171     5.3496    -0.5332 C.3     
  17 C17           -0.0793     4.5275    -0.0425 C.3     
  18 C18           -1.9388    -0.4354    -0.3887 C.ar    
  19 C19           -2.3819    -0.6373    -1.6825 C.ar    
  20 C20           -2.7912    -0.6566     0.6769 C.ar    
  21 C21           -4.0888    -1.0747     0.4490 C.ar    
  22 C22           -4.5346    -1.2714    -0.8458 C.ar    
  23 C23           -3.6794    -1.0550    -1.9117 C.ar    
  24 Cl24          -6.1640    -1.7971    -1.1328 Cl      
  25 C25            1.2515    13.6068     0.9910 C.2     
  26 N26            1.2295    14.9344     1.2223 N.am    
  27 O27            2.2048    12.9428     1.3501 O.2     
  28 C28            2.3541    15.5775     1.9064 C.3     
  29 H29            2.1860     7.1127     0.0910 H       
  30 H30            0.6585     6.8324     0.9607 H       
  31 H31           -0.6905     9.4939    -2.3735 H       
  32 H32            1.4855     8.7314     1.2242 H       
  33 H33            1.3727    11.1214     1.8003 H       
  34 H34           -0.7994    11.8852    -1.8021 H       
  35 H35           -0.5725    13.5314     0.1355 H       
  36 H36            0.1233    -0.3549    -0.9324 H       
  37 H37           -0.1822    -0.3652     0.8211 H       
  38 H38            2.0464     4.6649     1.3494 H       
  39 H39            2.8618     4.0505    -0.1519 H       
  40 H40            1.2973     5.2741    -1.6056 H       
  41 H41           -0.8421     4.3729    -0.8056 H       
  42 H42           -0.4926     4.8832     0.9014 H       
  43 H43           -1.7143    -0.4683    -2.5145 H       
  44 H44           -2.4431    -0.5029     1.6876 H       
  45 H45           -4.7544    -1.2481     1.2816 H       
  46 H46           -4.0269    -1.2081    -2.9227 H       
  47 H47            0.4691    15.4640     0.9358 H       
  48 H48            2.1582    16.6454     2.0026 H       
  49 H49            2.4751    15.1396     2.8972 H       
  50 H50            3.2657    15.4260     1.3283 H       
@<TRIPOS>BOND
   1    1   14 1
   2    1    3 1
   3    2    3 am
   4    2   15 1
   5    2   17 1
   6    3   12 2
   7    4    5 1
   8    4   16 1
   9    4   29 1
  10    4   30 1
  11    5    6 1
  12    6    7 ar
  13    6    8 ar
  14    7   11 ar
  15    7   31 1
  16    8    9 ar
  17    8   32 1
  18    9   10 ar
  19    9   33 1
  20   10   11 ar
  21   10   13 1
  22   11   34 1
  23   13   25 am
  24   13   35 1
  25   14   18 1
  26   14   36 1
  27   14   37 1
  28   15   16 1
  29   15   38 1
  30   15   39 1
  31   16   17 1
  32   16   40 1
  33   17   41 1
  34   17   42 1
  35   18   19 ar
  36   18   20 ar
  37   19   23 ar
  38   19   43 1
  39   20   21 ar
  40   20   44 1
  41   21   22 ar
  42   21   45 1
  43   22   23 ar
  44   22   24 1
  45   23   46 1
  46   25   26 am
  47   25   27 2
  48   26   28 1
  49   26   47 1
  50   28   48 1
  51   28   49 1
  52   28   50 1

#	End of record

