#	Name: ASD01912052
#	Creating user name:	WinNT
#	Creation time:	15. 06. 2019 19:58

#	Modifying user name:	WinNT
#	Modification time:	15. 06. 2019 19:58

#	Program:	/corina/corina34_cracker 3.40 0067  02.08.2006

@<TRIPOS>MOLECULE
ASD01912052
  35   35    0    0    0
SMALL
NO_CHARGES


@<TRIPOS>ATOM
   1 C1            -0.0168     1.3866     0.0097 C.ar    
   2 C2             0.0021    -0.0041     0.0020 C.ar    
   3 C3             1.2131    -0.6879    -0.0132 C.ar    
   4 C4             2.3923     0.0014    -0.0208 C.ar    
   5 C5             2.3850     1.4017    -0.0132 C.ar    
   6 C6             1.1660     2.0907     0.0022 C.ar    
   7 C7             3.6515     2.1451    -0.0213 C.2     
   8 C8             3.6408     3.6521    -0.0131 C.3     
   9 O9             4.7062     1.5463    -0.0346 O.2     
  10 C10            5.0579     4.1646    -0.0239 C.2     
  11 C11            5.3226     5.6482    -0.0184 C.3     
  12 O12            5.9813     3.3865    -0.0369 O.2     
  13 O13           -1.1648    -0.6960     0.0099 O.3     
  14 C14            6.7050     5.9173     0.5795 C.3     
  15 C15            5.2748     6.1800    -1.4522 C.3     
  16 C16           -2.3721     0.0683     0.0260 C.3     
  17 C17            1.2243    -2.1948    -0.0209 C.3     
  18 H18           -0.9593     1.9139     0.0170 H       
  19 H19            3.3303    -0.5337    -0.0322 H       
  20 H20            1.1538     3.1706     0.0077 H       
  21 H21            3.1159     4.0165    -0.8962 H       
  22 H22            3.1329     4.0069     0.8837 H       
  23 H23            4.5634     6.1505     0.5810 H       
  24 H24            7.4642     5.4150    -0.0199 H       
  25 H25            6.8965     6.9904     0.5834 H       
  26 H26            6.7391     5.5384     1.6009 H       
  27 H27            6.0340     5.6777    -2.0516 H       
  28 H28            4.2899     5.9883    -1.8782 H       
  29 H29            5.4663     7.2531    -1.4483 H       
  30 H30           -2.3954     0.6920     0.9196 H       
  31 H31           -2.4131     0.7016    -0.8602 H       
  32 H32           -3.2288    -0.6056     0.0309 H       
  33 H33            1.2170    -2.5529    -1.0504 H       
  34 H34            2.1219    -2.5540     0.4824 H       
  35 H35            0.3421    -2.5674     0.4997 H       
@<TRIPOS>BOND
   1    1    2 ar
   2    1    6 ar
   3    1   18 1
   4    2    3 ar
   5    2   13 1
   6    3    4 ar
   7    3   17 1
   8    4    5 ar
   9    4   19 1
  10    5    6 ar
  11    5    7 1
  12    6   20 1
  13    7    8 1
  14    7    9 2
  15    8   10 1
  16    8   21 1
  17    8   22 1
  18   10   11 1
  19   10   12 2
  20   11   14 1
  21   11   15 1
  22   11   23 1
  23   13   16 1
  24   14   24 1
  25   14   25 1
  26   14   26 1
  27   15   27 1
  28   15   28 1
  29   15   29 1
  30   16   30 1
  31   16   31 1
  32   16   32 1
  33   17   33 1
  34   17   34 1
  35   17   35 1

#	End of record

