#	Name: ASD05430720
#	Creating user name:	WinNT
#	Creation time:	15. 06. 2019 21:00

#	Modifying user name:	WinNT
#	Modification time:	15. 06. 2019 21:00

#	Program:	/corina/corina34_cracker 3.40 0067  02.08.2006

@<TRIPOS>MOLECULE
ASD05430720
  54   58    0    0    0
SMALL
NO_CHARGES


@<TRIPOS>ATOM
   1 C1            -0.0169     1.3964     0.0097 C.2     
   2 C2             0.0021    -0.0041     0.0020 C.2     
   3 C3            -1.2134    -0.7099     0.0102 C.2     
   4 N4            -2.3532    -0.0798     0.0249 N.2     
   5 N5            -2.4335     1.3150     0.0332 N.am    
   6 C6            -1.3143     2.0715     0.0311 C.2     
   7 O7            -1.3842     3.2891     0.0387 O.2     
   8 C8            -3.7465     1.9646     0.0496 C.3     
   9 C9            -4.5357     1.5509    -1.1941 C.3     
  10 C10           -4.4996     1.5439     1.2853 C.ar    
  11 C11           -5.2551     2.4688     1.9814 C.ar    
  12 C12           -5.9479     2.0843     3.1165 C.ar    
  13 C13           -5.8837     0.7710     3.5549 C.ar    
  14 C14           -5.1256    -0.1548     2.8555 C.ar    
  15 C15           -4.4384     0.2325     1.7179 C.ar    
  16 N16            1.2574     1.8189    -0.0002 N.2     
  17 C17            2.0626     0.7821    -0.0134 C.2     
  18 N18            1.3232    -0.3703    -0.0126 N.pl3   
  19 F19           -5.0611    -1.4353     3.2811 F       
  20 F20           -6.6859     2.9887     3.7968 F       
  21 C21            3.5391     0.8486    -0.0272 C.ar    
  22 C22            4.1832     2.0869    -0.0262 C.ar    
  23 C23            5.5647     2.1444    -0.0386 C.ar    
  24 C24            6.3108     0.9669    -0.0520 C.ar    
  25 C25            5.6690    -0.2645    -0.0530 C.ar    
  26 C26            4.2920    -0.3273    -0.0354 C.ar    
  27 N27            7.7112     1.0260    -0.0651 N.pl3   
  28 C28            8.4803     1.7664    -0.9049 C.2     
  29 N29            9.7350     1.5597    -0.6103 N.2     
  30 C30            9.8148     0.6943     0.4112 C.2     
  31 C31            8.5631     0.3521     0.7713 C.2     
  32 C32           11.0855     0.1954     1.0496 C.3     
  33 F33           -6.5588     0.3940     4.6627 F       
  34 O34            6.1951     3.3489    -0.0381 O.3     
  35 C35            5.3680     4.5141    -0.0244 C.3     
  36 H36           -1.2020    -1.7898     0.0040 H       
  37 H37           -3.6164     3.0468     0.0542 H       
  38 H38           -5.5127     2.0342    -1.1819 H       
  39 H39           -3.9910     1.8552    -2.0879 H       
  40 H40           -4.6658     0.4687    -1.1986 H       
  41 H41           -5.3046     3.4921     1.6397 H       
  42 H42           -3.8476    -0.4886     1.1727 H       
  43 H43            1.6694    -1.2764    -0.0205 H       
  44 H44            3.6038     2.9982    -0.0161 H       
  45 H45            6.2499    -1.1749    -0.0635 H       
  46 H46            3.7954    -1.2863    -0.0362 H       
  47 H47            8.1148     2.4172    -1.6855 H       
  48 H48            8.2841    -0.3280     1.5624 H       
  49 H49           11.3648     0.8576     1.8690 H       
  50 H50           10.9276    -0.8121     1.4344 H       
  51 H51           11.8833     0.1797     0.3070 H       
  52 H52            5.9956     5.4053    -0.0255 H       
  53 H53            4.7305     4.5176    -0.9085 H       
  54 H54            4.7469     4.5083     0.8714 H       
@<TRIPOS>BOND
   1    1    2 2
   2    1   16 1
   3    1    6 1
   4    2    3 1
   5    2   18 1
   6    3    4 2
   7    3   36 1
   8    4    5 1
   9    5    6 am
  10    5    8 1
  11    6    7 2
  12    8    9 1
  13    8   10 1
  14    8   37 1
  15    9   38 1
  16    9   39 1
  17    9   40 1
  18   10   11 ar
  19   10   15 ar
  20   11   12 ar
  21   11   41 1
  22   12   13 ar
  23   12   20 1
  24   13   14 ar
  25   13   33 1
  26   14   15 ar
  27   14   19 1
  28   15   42 1
  29   16   17 2
  30   17   18 1
  31   17   21 1
  32   18   43 1
  33   21   22 ar
  34   21   26 ar
  35   22   23 ar
  36   22   44 1
  37   23   24 ar
  38   23   34 1
  39   24   25 ar
  40   24   27 1
  41   25   26 ar
  42   25   45 1
  43   26   46 1
  44   27   28 1
  45   27   31 1
  46   28   29 2
  47   28   47 1
  48   29   30 1
  49   30   31 2
  50   30   32 1
  51   31   48 1
  52   32   49 1
  53   32   50 1
  54   32   51 1
  55   34   35 1
  56   35   52 1
  57   35   53 1
  58   35   54 1

#	End of record

