#	Name: ASD02408117
#	Creating user name:	WinNT
#	Creation time:	15. 06. 2019 20:21

#	Modifying user name:	WinNT
#	Modification time:	15. 06. 2019 20:21

#	Program:	/corina/corina34_cracker 3.40 0067  02.08.2006

@<TRIPOS>MOLECULE
ASD02408117
  47   49    0    0    0
SMALL
NO_CHARGES


@<TRIPOS>ATOM
   1 C1            -0.0069     5.6787    -2.2196 C.2     
   2 C2            -1.2295     5.3744    -1.7814 C.2     
   3 C3             1.2440     5.1802    -1.5430 C.3     
   4 C4             1.6502     3.8607    -2.1473 C.2     
   5 N5             2.7515     3.2418    -1.6797 N.am    
   6 N6             0.9200     3.3529    -3.1028 N.2     
   7 C7             1.2321     2.1838    -3.6764 C.2     
   8 C8             2.3713     1.4871    -3.2406 C.2     
   9 C9             3.1441     2.0589    -2.1973 C.2     
  10 N10            0.4467     1.6713    -4.6796 N.pl3   
  11 C11           -0.6837     0.7858    -4.3662 C.3     
  12 O12            4.1422     1.4967    -1.7810 O.2     
  13 S13           -2.4326     6.1313    -2.8173 S.3     
  14 C14           -1.1703     6.8394    -3.8167 C.2     
  15 C15            0.0257     6.4823    -3.3462 C.2     
  16 C16           -1.9552     1.3751    -4.9893 C.3     
  17 N17           -1.6808     1.7027    -6.3954 N.am    
  18 C18           -0.5505     2.5881    -6.7088 C.3     
  19 C19            0.7177     2.0033    -6.0853 C.3     
  20 C20           -2.4516     1.1997    -7.3799 C.2     
  21 O21           -3.3815     0.4697    -7.1091 O.2     
  22 C22           -2.1581     1.5444    -8.8173 C.3     
  23 C23           -3.1737     0.8490    -9.7262 C.3     
  24 C24           -2.8757     1.1990   -11.1855 C.3     
  25 C25            2.7389     0.2341    -3.8284 C.1     
  26 N26            3.0304    -0.7599    -4.2948 N.1     
  27 H27           -1.4472     4.7573    -0.9223 H       
  28 H28            2.0458     5.9054    -1.6818 H       
  29 H29            1.0533     5.0487    -0.4779 H       
  30 H30            3.2665     3.6496    -0.9659 H       
  31 H31           -0.4982    -0.2049    -4.7811 H       
  32 H32           -0.8046     0.7157    -3.2852 H       
  33 H33           -1.3379     7.4638    -4.6817 H       
  34 H34            0.9496     6.8026    -3.8047 H       
  35 H35           -2.7619     0.6441    -4.9347 H       
  36 H36           -2.2406     2.2795    -4.4519 H       
  37 H37           -0.4295     2.6583    -7.7898 H       
  38 H38           -0.7359     3.5789    -6.2939 H       
  39 H39            1.5235     2.7352    -6.1406 H       
  40 H40            1.0047     1.0983    -6.6207 H       
  41 H41           -2.2278     2.6236    -8.9537 H       
  42 H42           -1.1528     1.2100    -9.0732 H       
  43 H43           -3.1041    -0.2302    -9.5898 H       
  44 H44           -4.1791     1.1835    -9.4703 H       
  45 H45           -3.5992     0.7036   -11.8330 H       
  46 H46           -2.9453     2.2782   -11.3218 H       
  47 H47           -1.8703     0.8646   -11.4413 H       
@<TRIPOS>BOND
   1    1    2 2
   2    1    3 1
   3    1   15 1
   4    2   13 1
   5    2   27 1
   6    3    4 1
   7    3   28 1
   8    3   29 1
   9    4    5 1
  10    4    6 2
  11    5    9 am
  12    5   30 1
  13    6    7 1
  14    7    8 2
  15    7   10 1
  16    8    9 1
  17    8   25 1
  18    9   12 2
  19   10   11 1
  20   10   19 1
  21   11   16 1
  22   11   31 1
  23   11   32 1
  24   13   14 1
  25   14   15 2
  26   14   33 1
  27   15   34 1
  28   16   17 1
  29   16   35 1
  30   16   36 1
  31   17   18 1
  32   17   20 am
  33   18   19 1
  34   18   37 1
  35   18   38 1
  36   19   39 1
  37   19   40 1
  38   20   21 2
  39   20   22 1
  40   22   23 1
  41   22   41 1
  42   22   42 1
  43   23   24 1
  44   23   43 1
  45   23   44 1
  46   24   45 1
  47   24   46 1
  48   24   47 1
  49   25   26 3

#	End of record

