#	Name: ASD04880292
#	Creating user name:	WinNT
#	Creation time:	15. 06. 2019 20:53

#	Modifying user name:	WinNT
#	Modification time:	15. 06. 2019 20:53

#	Program:	/corina/corina34_cracker 3.40 0067  02.08.2006

@<TRIPOS>MOLECULE
ASD04880292
  39   41    0    0    0
SMALL
NO_CHARGES


@<TRIPOS>ATOM
   1 C1             0.0592     1.4209     0.4309 C.3     
   2 N2             0.0446    -0.0333     0.2057 N.am    
   3 N3             1.3486    -0.4663    -0.0258 N.2     
   4 C4             2.2292     0.4728     0.0101 C.2     
   5 C5             1.5498     1.7918     0.3014 C.3     
   6 C6            -1.0510    -0.8180     0.2209 C.2     
   7 N7            -0.9344    -2.1424    -0.0005 N.am    
   8 O8            -2.1447    -0.3312     0.4343 O.2     
   9 C9            -2.0557    -2.9717     0.1113 C.ar    
  10 C10            3.6774     0.2898    -0.2005 C.ar    
  11 C11            4.5389     1.3873    -0.1369 C.ar    
  12 C12            5.8933     1.2127    -0.3339 C.ar    
  13 C13            6.4020    -0.0480    -0.5951 C.ar    
  14 C14            5.5512    -1.1464    -0.6602 C.ar    
  15 C15            4.1927    -0.9826    -0.4584 C.ar    
  16 O16            6.0558    -2.3824    -0.9175 O.3     
  17 F17            7.7291    -0.2120    -0.7879 F       
  18 C18           -3.3050    -2.5089    -0.2803 C.ar    
  19 C19           -4.4111    -3.3291    -0.1691 C.ar    
  20 C20           -4.2763    -4.6102     0.3320 C.ar    
  21 C21           -3.0320    -5.0758     0.7243 C.ar    
  22 C22           -1.9203    -4.2610     0.6089 C.ar    
  23 F23           -2.9033    -6.3281     1.2146 F       
  24 C24            5.1248    -3.4652    -0.9701 C.3     
  25 H25           -0.5309     1.9327    -0.3293 H       
  26 H26           -0.3099     1.6583     1.4286 H       
  27 H27            1.7001     2.4894    -0.5224 H       
  28 H28            1.9210     2.2151     1.2348 H       
  29 H29           -0.0732    -2.5205    -0.2374 H       
  30 H30            4.1450     2.3722     0.0661 H       
  31 H31            6.5585     2.0621    -0.2845 H       
  32 H32            3.5311    -1.8348    -0.5087 H       
  33 H33           -3.4120    -1.5079    -0.6714 H       
  34 H34           -5.3825    -2.9687    -0.4739 H       
  35 H35           -5.1427    -5.2492     0.4182 H       
  36 H36           -0.9500    -4.6235     0.9146 H       
  37 H37            4.6133    -3.5514    -0.0114 H       
  38 H38            4.3936    -3.2778    -1.7564 H       
  39 H39            5.6573    -4.3923    -1.1825 H       
@<TRIPOS>BOND
   1    1    2 1
   2    1    5 1
   3    1   25 1
   4    1   26 1
   5    2    3 1
   6    2    6 am
   7    3    4 2
   8    4    5 1
   9    4   10 1
  10    5   27 1
  11    5   28 1
  12    6    7 am
  13    6    8 2
  14    7    9 1
  15    7   29 1
  16    9   18 ar
  17    9   22 ar
  18   10   11 ar
  19   10   15 ar
  20   11   12 ar
  21   11   30 1
  22   12   13 ar
  23   12   31 1
  24   13   14 ar
  25   13   17 1
  26   14   15 ar
  27   14   16 1
  28   15   32 1
  29   16   24 1
  30   18   19 ar
  31   18   33 1
  32   19   20 ar
  33   19   34 1
  34   20   21 ar
  35   20   35 1
  36   21   22 ar
  37   21   23 1
  38   22   36 1
  39   24   37 1
  40   24   38 1
  41   24   39 1

#	End of record

