#	Name: ASD01811533
#	Creating user name:	WinNT
#	Creation time:	15. 06. 2019 19:26

#	Modifying user name:	WinNT
#	Modification time:	15. 06. 2019 19:26

#	Program:	/corina/corina34_cracker 3.40 0067  02.08.2006

@<TRIPOS>MOLECULE
ASD01811533
  31   30    0    0    0
SMALL
NO_CHARGES


@<TRIPOS>ATOM
   1 C1             0.2162     1.4634     0.1504 C.2     
   2 C2             0.1155    -0.0084     0.0709 C.ar    
   3 C3             1.2012    -0.7612    -0.3842 C.ar    
   4 C4             1.1077    -2.1362    -0.4592 C.ar    
   5 C5            -0.0576    -2.7768    -0.0851 C.ar    
   6 C6            -1.1492    -2.0368     0.3712 C.ar    
   7 C7            -1.0606    -0.6501     0.4551 C.ar    
   8 O8             1.2775     2.0123    -0.0686 O.2     
   9 O9            -0.8702     2.1971     0.4604 O.3     
  10 C10           -0.1505    -4.2785    -0.1704 C.3     
  11 C11            2.4763    -0.0705    -0.7944 C.3     
  12 C12           -2.3977    -2.7259     0.7708 C.2     
  13 N13           -3.5109    -1.9904     1.1144 N.pl3   
  14 N14           -2.4434    -4.0272     0.7975 N.2     
  15 C15           -0.6976     3.6375     0.5206 C.3     
  16 H16            1.9492    -2.7139    -0.8123 H       
  17 H17           -1.9012    -0.0735     0.8122 H       
  18 H18            0.0450    -4.7110     0.8109 H       
  19 H19           -1.1498    -4.5626    -0.5001 H       
  20 H20            0.5863    -4.6482    -0.8836 H       
  21 H21            3.0748     0.1432     0.0912 H       
  22 H22            3.0400    -0.7176    -1.4664 H       
  23 H23            2.2363     0.8623    -1.3045 H       
  24 H24           -3.4769    -1.0212     1.0945 H       
  25 H25           -4.3287    -2.4418     1.3761 H       
  26 H26           -3.2611    -4.4785     1.0592 H       
  27 H27            0.0472     3.8829     1.2776 H       
  28 H28           -0.3637     4.0043    -0.4500 H       
  29 H29           -1.6469     4.1067     0.7793 H       
  30 Cl30           8.0748     9.1067     6.3761 Cl      
  31 H31            8.0748    10.4767     6.3761 H       
@<TRIPOS>BOND
   1    1    2 1
   2    1    8 2
   3    1    9 1
   4    2    3 ar
   5    2    7 ar
   6    3    4 ar
   7    3   11 1
   8    4    5 ar
   9    4   16 1
  10    5    6 ar
  11    5   10 1
  12    6    7 ar
  13    6   12 1
  14    7   17 1
  15    9   15 1
  16   10   18 1
  17   10   19 1
  18   10   20 1
  19   11   21 1
  20   11   22 1
  21   11   23 1
  22   12   13 1
  23   12   14 2
  24   13   24 1
  25   13   25 1
  26   14   26 1
  27   15   27 1
  28   15   28 1
  29   15   29 1
  30   30   31 1

#	End of record

