#	Name: ASD01800019
#	Creating user name:	WinNT
#	Creation time:	15. 06. 2019 19:23

#	Modifying user name:	WinNT
#	Modification time:	15. 06. 2019 19:23

#	Program:	/corina/corina34_cracker 3.40 0067  02.08.2006

@<TRIPOS>MOLECULE
ASD01800019
  50   53    0    0    0
SMALL
NO_CHARGES


@<TRIPOS>ATOM
   1 C1            -0.2531     0.8532     0.3094 C.ar    
   2 C2             0.0007    -0.4891     0.5750 C.ar    
   3 C3             1.2963    -0.9880     0.4580 C.ar    
   4 C4             2.3318    -0.1489     0.0781 C.ar    
   5 C5             2.0823     1.1884    -0.1866 C.ar    
   6 C6             0.7888     1.6931    -0.0723 C.ar    
   7 O7             3.5950    -0.6386    -0.0348 O.3     
   8 C8             3.8701    -1.3742    -1.1289 C.2     
   9 N9             5.0696    -1.9764    -1.2519 N.am    
  10 C10            5.3689    -2.7765    -2.4420 C.3     
  11 C11            6.8894    -2.8304    -2.6722 C.3     
  12 C12            7.2947    -4.3168    -2.5931 C.3     
  13 C13            5.9919    -5.0841    -2.9295 C.3     
  14 C14            4.9033    -4.2320    -2.2310 C.3     
  15 O15            3.0370    -1.4949    -2.0052 O.2     
  16 C16           -1.1074    -1.3880     0.9828 C.ar    
  17 C17           -0.8550    -2.7323     1.2490 C.ar    
  18 C18           -1.8887    -3.5642     1.6278 C.ar    
  19 C19           -3.1749    -3.0653     1.7435 C.ar    
  20 C20           -3.4308    -1.7305     1.4797 C.ar    
  21 C21           -2.4026    -0.8893     1.1062 C.ar    
  22 C22            0.5225     3.1252    -0.3559 C.ar    
  23 C23            1.5648     3.9679    -0.7368 C.ar    
  24 C24            1.3122     5.2988    -0.9994 C.ar    
  25 C25            0.0257     5.7973    -0.8849 C.ar    
  26 C26           -1.0131     4.9642    -0.5062 C.ar    
  27 C27           -0.7716     3.6303    -0.2475 C.ar    
  28 Cl28          -4.4712    -4.1168     2.2205 Cl      
  29 Cl29          -0.2858     7.4726    -1.2166 Cl      
  30 H30           -1.2573     1.2413     0.3951 H       
  31 H31            1.4939    -2.0296     0.6639 H       
  32 H32            2.8914     1.8399    -0.4821 H       
  33 H33            5.7347    -1.8800    -0.5524 H       
  34 H34            4.8742    -2.3481    -3.3137 H       
  35 H35            7.1325    -2.4289    -3.6560 H       
  36 H36            7.4046    -2.2612    -1.8985 H       
  37 H37            8.0694    -4.5405    -3.3265 H       
  38 H38            7.6357    -4.5662    -1.5884 H       
  39 H39            5.8278    -5.1130    -4.0067 H       
  40 H40            6.0190    -6.0917    -2.5147 H       
  41 H41            4.8582    -4.4678    -1.1678 H       
  42 H42            3.9328    -4.3939    -2.7002 H       
  43 H43            0.1480    -3.1225     1.1586 H       
  44 H44           -1.6941    -4.6063     1.8340 H       
  45 H45           -4.4359    -1.3461     1.5706 H       
  46 H46           -2.6032     0.1518     0.9006 H       
  47 H47            2.5688     3.5800    -0.8261 H       
  48 H48            2.1194     5.9528    -1.2945 H       
  49 H49           -2.0149     5.3577    -0.4176 H       
  50 H50           -1.5826     2.9812     0.0477 H       
@<TRIPOS>BOND
   1    1    2 ar
   2    1    6 ar
   3    1   30 1
   4    2    3 ar
   5    2   16 1
   6    3    4 ar
   7    3   31 1
   8    4    5 ar
   9    4    7 1
  10    5    6 ar
  11    5   32 1
  12    6   22 1
  13    7    8 1
  14    8    9 am
  15    8   15 2
  16    9   10 1
  17    9   33 1
  18   10   11 1
  19   10   14 1
  20   10   34 1
  21   11   12 1
  22   11   35 1
  23   11   36 1
  24   12   13 1
  25   12   37 1
  26   12   38 1
  27   13   14 1
  28   13   39 1
  29   13   40 1
  30   14   41 1
  31   14   42 1
  32   16   17 ar
  33   16   21 ar
  34   17   18 ar
  35   17   43 1
  36   18   19 ar
  37   18   44 1
  38   19   20 ar
  39   19   28 1
  40   20   21 ar
  41   20   45 1
  42   21   46 1
  43   22   23 ar
  44   22   27 ar
  45   23   24 ar
  46   23   47 1
  47   24   25 ar
  48   24   48 1
  49   25   26 ar
  50   25   29 1
  51   26   27 ar
  52   26   49 1
  53   27   50 1

#	End of record

