#	Name: ASD02039326
#	Creating user name:	WinNT
#	Creation time:	15. 06. 2019 20:18

#	Modifying user name:	WinNT
#	Modification time:	15. 06. 2019 20:18

#	Program:	/corina/corina34_cracker 3.40 0067  02.08.2006

@<TRIPOS>MOLECULE
ASD02039326
  50   52    0    0    0
SMALL
NO_CHARGES


@<TRIPOS>ATOM
   1 C1            -0.2122     1.3544     0.3602 C.ar    
   2 C2             0.0559    -0.0024     0.3849 C.ar    
   3 C3            -0.9804    -0.9176     0.4103 C.ar    
   4 C4            -2.5670     0.8886     0.3986 C.ar    
   5 C5            -1.5171     1.8040     0.3668 C.ar    
   6 C6            -3.9711     1.3659     0.4054 C.ar    
   7 C7             0.9236     2.3444     0.3321 C.3     
   8 N8             1.3762     2.5293    -1.0489 N.am    
   9 C9             0.6846     3.4775    -1.9258 C.3     
  10 C10            2.4290     1.8271    -1.5128 C.2     
  11 C11            3.0582     0.7980    -0.6670 C.2     
  12 C12            4.0455    -0.0639    -1.0457 C.2     
  13 N13            2.7652     0.5384     0.6329 N.2     
  14 C14            3.5218    -0.4360     1.0485 C.2     
  15 N15            4.3291    -0.8340     0.0310 N.pl3   
  16 O16            2.8595     2.0431    -2.6295 O.2     
  17 C17            5.3270    -1.9051     0.0884 C.3     
  18 C18           -4.2366     2.7308     0.4998 C.ar    
  19 C19           -2.2919    -0.4800     0.4116 C.ar    
  20 C20            1.6346     4.6192    -2.2927 C.3     
  21 C21            0.2345     2.7592    -3.1995 C.3     
  22 F22           -3.3043    -1.3742     0.4364 F       
  23 N23           -4.9640     0.4906     0.3161 N.ar    
  24 C24           -6.2248     0.8737     0.3183 C.ar    
  25 C25           -6.5600     2.2113     0.4139 C.ar    
  26 C26           -5.5518     3.1610     0.5045 C.ar    
  27 C27           -7.3160    -0.1605     0.2145 C.3     
  28 F28           -6.7504    -1.4398     0.2433 F       
  29 F29           -8.1987    -0.0166     1.2904 F       
  30 F30           -8.0120     0.0148    -0.9863 F       
  31 H31            1.0790    -0.3485     0.3841 H       
  32 H32           -0.7651    -1.9758     0.4289 H       
  33 H33           -1.7239     2.8640     0.3567 H       
  34 H34            0.5836     3.2990     0.7338 H       
  35 H35            1.7484     1.9685     0.9375 H       
  36 H36           -0.1863     3.8812    -1.4093 H       
  37 H37            4.5115    -0.1212    -2.0183 H       
  38 H38            3.5115    -0.8578     2.0427 H       
  39 H39            4.8630    -2.8495    -0.1959 H       
  40 H40            6.1422    -1.6793    -0.5991 H       
  41 H41            5.7182    -1.9832     1.1027 H       
  42 H42           -3.4273     3.4426     0.5687 H       
  43 H43            2.4337     4.2371    -2.9279 H       
  44 H44            1.0836     5.3927    -2.8277 H       
  45 H45            2.0634     5.0414    -1.3838 H       
  46 H46           -0.3569     1.8832    -2.9330 H       
  47 H47           -0.3700     3.4356    -3.8038 H       
  48 H48            1.1098     2.4471    -3.7692 H       
  49 H49           -7.5965     2.5149     0.4141 H       
  50 H50           -5.7886     4.2120     0.5805 H       
@<TRIPOS>BOND
   1    1    2 ar
   2    1    7 1
   3    1    5 ar
   4    2    3 ar
   5    2   31 1
   6    3   19 ar
   7    3   32 1
   8    4    5 ar
   9    4    6 1
  10    4   19 ar
  11    5   33 1
  12    6   18 ar
  13    6   23 ar
  14    7    8 1
  15    7   34 1
  16    7   35 1
  17    8    9 1
  18    8   10 am
  19    9   21 1
  20    9   20 1
  21    9   36 1
  22   10   11 1
  23   10   16 2
  24   11   12 2
  25   11   13 1
  26   12   15 1
  27   12   37 1
  28   13   14 2
  29   14   15 1
  30   14   38 1
  31   15   17 1
  32   17   39 1
  33   17   40 1
  34   17   41 1
  35   18   26 ar
  36   18   42 1
  37   19   22 1
  38   20   43 1
  39   20   44 1
  40   20   45 1
  41   21   46 1
  42   21   47 1
  43   21   48 1
  44   23   24 ar
  45   24   25 ar
  46   24   27 1
  47   25   26 ar
  48   25   49 1
  49   26   50 1
  50   27   28 1
  51   27   29 1
  52   27   30 1

#	End of record

