#	Name: ASD01200306
#	Creating user name:	WinNT
#	Creation time:	15. 06. 2019 19:08

#	Modifying user name:	WinNT
#	Modification time:	15. 06. 2019 19:08

#	Program:	/corina/corina34_cracker 3.40 0067  02.08.2006

@<TRIPOS>MOLECULE
ASD01200306
  27   27    0    0    0
SMALL
NO_CHARGES


@<TRIPOS>ATOM
   1 C1            -0.0169     1.3945     0.0097 C.2     
   2 C2             0.0021    -0.0041     0.0020 C.2     
   3 C3            -1.2796    -0.4379     0.0119 C.2     
   4 N4            -2.0812     0.6476     0.0254 N.pl3   
   5 N5            -1.2651     1.7862     0.0294 N.2     
   6 C6            -3.5461     0.6372     0.0393 C.3     
   7 P7            -4.1373     0.6236     1.7637 P.3     
   8 O8            -3.5321    -0.5191     2.4838 O.2     
   9 O9            -3.7143     1.9984     2.4869 O.3     
  10 C10           -3.9415     2.2495     3.8752 C.3     
  11 C11           -3.4218     3.6433     4.2332 C.3     
  12 C12           -5.9529     0.4608     1.7824 C.3     
  13 N13            1.1702     2.2786     0.0031 N.pl3   
  14 O14            2.2886     1.7965    -0.0101 O.2     
  15 O15            1.0286     3.4884     0.0110 O.2     
  16 H16            0.8839    -0.6275    -0.0101 H       
  17 H17           -1.6031    -1.4683     0.0095 H       
  18 H18           -3.9206     1.5273    -0.4662 H       
  19 H19           -3.9080    -0.2526    -0.4759 H       
  20 H20           -5.0100     2.1954     4.0841 H       
  21 H21           -3.4167     1.5021     4.4703 H       
  22 H22           -3.5951     3.8348     5.2921 H       
  23 H23           -2.3533     3.6973     4.0243 H       
  24 H24           -3.9466     4.3907     3.6381 H       
  25 H25           -6.2393    -0.4700     1.2928 H       
  26 H26           -6.3064     0.4527     2.8134 H       
  27 H27           -6.3986     1.3024     1.2521 H       
@<TRIPOS>BOND
   1    1    2 1
   2    1   13 1
   3    1    5 2
   4    2    3 2
   5    2   16 1
   6    3    4 1
   7    3   17 1
   8    4    5 1
   9    4    6 1
  10    6    7 1
  11    6   18 1
  12    6   19 1
  13    7    8 2
  14    7    9 1
  15    7   12 1
  16    9   10 1
  17   10   11 1
  18   10   20 1
  19   10   21 1
  20   11   22 1
  21   11   23 1
  22   11   24 1
  23   12   25 1
  24   12   26 1
  25   12   27 1
  26   13   14 2
  27   13   15 2

#	End of record

