#	Name: ASD03092745
#	Creating user name:	WinNT
#	Creation time:	15. 06. 2019 20:33

#	Modifying user name:	WinNT
#	Modification time:	15. 06. 2019 20:33

#	Program:	/corina/corina34_cracker 3.40 0067  02.08.2006

@<TRIPOS>MOLECULE
ASD03092745
  86   87    0    0    0
SMALL
NO_CHARGES


@<TRIPOS>ATOM
   1 N1            -0.4079     1.2973    -0.0386 N.3     
   2 C2            -0.1820    -0.1386     0.0216 C.3     
   3 C3             0.9608    -0.4905     0.9757 C.3     
   4 C4             2.2095     0.3174     0.6177 C.3     
   5 C5             1.8780     1.8052     0.7470 C.3     
   6 C6             0.7406     2.1740    -0.2071 C.3     
   7 C7             1.2473     2.1972    -1.6482 C.3     
   8 C8             0.2924     3.6105     0.1467 C.3     
   9 C9            -1.4653    -0.7944     0.5806 C.3     
  10 C10            0.0757    -0.7445    -1.3569 C.3     
  11 O11            3.2771    -0.0164     1.5488 O.3     
  12 C12            4.5353     0.0661     1.0884 C.2     
  13 C13            5.6927    -0.2644     1.9951 C.3     
  14 O14            4.7398     0.4053    -0.0531 O.2     
  15 C15            7.0060    -0.0913     1.2295 C.3     
  16 C16            8.1811    -0.4268     2.1501 C.3     
  17 C17            9.4943    -0.2537     1.3845 C.3     
  18 C18           10.6694    -0.5893     2.3051 C.3     
  19 C19           11.9827    -0.4161     1.5394 C.3     
  20 C20           13.1578    -0.7517     2.4600 C.3     
  21 C21           14.4711    -0.5786     1.6944 C.3     
  22 C22           15.6285    -0.9091     2.6012 C.2     
  23 O23           16.8867    -0.8266     2.1407 O.3     
  24 O24           15.4240    -1.2483     3.7426 O.2     
  25 C25           17.9544    -1.1604     3.0719 C.3     
  26 C26           19.1390    -1.7333     2.2917 C.3     
  27 C27           20.2694    -2.0905     3.2587 C.3     
  28 N28           20.6254    -0.9658     4.1060 N.3     
  29 C29           19.5715    -0.1915     4.7349 C.3     
  30 C30           18.4118     0.1091     3.7889 C.3     
  31 C31           19.0444    -0.8783     5.9984 C.3     
  32 C32           20.1745     1.1636     5.1713 C.3     
  33 C33           19.8907    -3.3265     4.0750 C.3     
  34 C34           21.5058    -2.4582     2.4087 C.3     
  35 H35           -1.1619     1.5361    -0.6652 H       
  36 H36            0.6613    -0.2614     1.9997 H       
  37 H37            1.1828    -1.5560     0.8975 H       
  38 H38            2.5363     0.0864    -0.3918 H       
  39 H39            1.5751     2.0220     1.7727 H       
  40 H40            2.7619     2.3967     0.5026 H       
  41 H41            1.7358     1.2500    -1.8768 H       
  42 H42            0.4070     2.3456    -2.3264 H       
  43 H43            1.9605     3.0124    -1.7696 H       
  44 H44            1.1324     4.2940     0.0233 H       
  45 H45           -0.5205     3.9106    -0.5146 H       
  46 H46           -0.0509     3.6397     1.1808 H       
  47 H47           -2.3043    -0.5704    -0.0782 H       
  48 H48           -1.3263    -1.8739     0.6378 H       
  49 H49           -1.6701    -0.4012     1.5764 H       
  50 H50            1.0204    -0.3673    -1.7488 H       
  51 H51            0.1247    -1.8302    -1.2733 H       
  52 H52           -0.7340    -0.4682    -2.0324 H       
  53 H53            5.6828     0.4047     2.8555 H       
  54 H54            5.6041    -1.2960     2.3360 H       
  55 H55            7.0159    -0.7604     0.3691 H       
  56 H56            7.0945     0.9402     0.8886 H       
  57 H57            8.1711     0.2423     3.0105 H       
  58 H58            8.0925    -1.4584     2.4910 H       
  59 H59            9.5043    -0.9228     0.5241 H       
  60 H60            9.5829     0.7778     1.0436 H       
  61 H61           10.6595     0.0799     3.1655 H       
  62 H62           10.5809    -1.6208     2.6460 H       
  63 H63           11.9926    -1.0853     0.6791 H       
  64 H64           12.0713     0.6154     1.1985 H       
  65 H65           13.1479    -0.0826     3.3204 H       
  66 H66           13.0692    -1.7832     2.8009 H       
  67 H67           14.4810    -1.2477     0.8340 H       
  68 H68           14.5597     0.4530     1.3535 H       
  69 H69           17.5823    -1.8878     3.7882 H       
  70 H70           18.8228    -2.6297     1.7564 H       
  71 H71           19.4952    -0.9926     1.5746 H       
  72 H72           21.3700    -1.1922     4.7481 H       
  73 H73           18.7301     0.8475     3.0485 H       
  74 H74           17.5766     0.5236     4.3590 H       
  75 H75           19.8581    -0.9966     6.7140 H       
  76 H76           18.2566    -0.2689     6.4415 H       
  77 H77           18.6433    -1.8581     5.7390 H       
  78 H78           20.5586     1.6889     4.2968 H       
  79 H79           19.4029     1.7680     5.6483 H       
  80 H80           20.9872     0.9894     5.8765 H       
  81 H81           19.7160    -4.1665     3.4027 H       
  82 H82           20.7021    -3.5721     4.7601 H       
  83 H83           18.9839    -3.1221     4.6443 H       
  84 H84           21.7878    -1.6062     1.7901 H       
  85 H85           22.3345    -2.7195     3.0668 H       
  86 H86           21.2675    -3.3083     1.7695 H       
@<TRIPOS>BOND
   1    1    2 1
   2    1    6 1
   3    1   35 1
   4    2    3 1
   5    2    9 1
   6    2   10 1
   7    3    4 1
   8    3   36 1
   9    3   37 1
  10    4    5 1
  11    4   11 1
  12    4   38 1
  13    5    6 1
  14    5   39 1
  15    5   40 1
  16    6    7 1
  17    6    8 1
  18    7   41 1
  19    7   42 1
  20    7   43 1
  21    8   44 1
  22    8   45 1
  23    8   46 1
  24    9   47 1
  25    9   48 1
  26    9   49 1
  27   10   50 1
  28   10   51 1
  29   10   52 1
  30   11   12 1
  31   12   13 1
  32   12   14 2
  33   13   15 1
  34   13   53 1
  35   13   54 1
  36   15   16 1
  37   15   55 1
  38   15   56 1
  39   16   17 1
  40   16   57 1
  41   16   58 1
  42   17   18 1
  43   17   59 1
  44   17   60 1
  45   18   19 1
  46   18   61 1
  47   18   62 1
  48   19   20 1
  49   19   63 1
  50   19   64 1
  51   20   21 1
  52   20   65 1
  53   20   66 1
  54   21   22 1
  55   21   67 1
  56   21   68 1
  57   22   23 1
  58   22   24 2
  59   23   25 1
  60   25   26 1
  61   25   30 1
  62   25   69 1
  63   26   27 1
  64   26   70 1
  65   26   71 1
  66   27   28 1
  67   27   33 1
  68   27   34 1
  69   28   29 1
  70   28   72 1
  71   29   30 1
  72   29   31 1
  73   29   32 1
  74   30   73 1
  75   30   74 1
  76   31   75 1
  77   31   76 1
  78   31   77 1
  79   32   78 1
  80   32   79 1
  81   32   80 1
  82   33   81 1
  83   33   82 1
  84   33   83 1
  85   34   84 1
  86   34   85 1
  87   34   86 1

#	End of record

