#	Name: ASD01200102
#	Creating user name:	WinNT
#	Creation time:	15. 06. 2019 19:08

#	Modifying user name:	WinNT
#	Modification time:	15. 06. 2019 19:08

#	Program:	/corina/corina34_cracker 3.40 0067  02.08.2006

@<TRIPOS>MOLECULE
ASD01200102
  60   64    0    0    0
SMALL
NO_CHARGES


@<TRIPOS>ATOM
   1 C1            -0.3608     1.4793     1.3189 C.2     
   2 N2            -0.4816     0.2932     1.9295 N.am    
   3 C3             0.8385    -0.3509     1.9993 C.3     
   4 C4             1.7800     0.6621     1.3195 C.3     
   5 N5             0.8904     1.7694     0.9389 N.am    
   6 O6            -1.3025     2.2230     1.1229 O.2     
   7 C7            -1.7305    -0.2725     2.4456 C.3     
   8 C8             1.3065     2.9952     0.2529 C.3     
   9 C9             1.3413     7.6688     3.9733 C.2     
  10 N10            2.4647     6.9964     4.0158 N.2     
  11 C11            2.4033     5.9517     3.1560 C.ar    
  12 C12            1.1388     5.9933     2.5409 C.ar    
  13 N13            0.4872     7.0885     3.0754 N.pl3   
  14 C14            3.3027     4.9366     2.8130 C.ar    
  15 C15            2.9406     3.9888     1.8770 C.ar    
  16 C16            1.6868     4.0373     1.2729 C.ar    
  17 C17            0.7918     5.0323     1.6016 C.ar    
  18 C18            1.0388     8.8721     4.7800 C.ar    
  19 C19            1.9928     9.3669     5.6685 C.ar    
  20 C20            1.6952    10.4936     6.4158 C.ar    
  21 C21            0.4529    11.0890     6.2503 C.ar    
  22 C22           -0.4463    10.5447     5.3505 C.ar    
  23 N23           -0.1366     9.4751     4.6480 N.ar    
  24 O24            3.8138     3.0020     1.5424 O.3     
  25 C25            4.9834     2.9249     2.2298 C.ar    
  26 C26            5.0524     2.1881     3.4036 C.ar    
  27 C27            6.2427     2.1110     4.1003 C.ar    
  28 C28            7.3647     2.7676     3.6292 C.ar    
  29 C29            7.2986     3.5026     2.4598 C.ar    
  30 C30            6.1123     3.5782     1.7562 C.ar    
  31 S31            8.8812     2.6682     4.5209 S.o2    
  32 O32            9.5734     3.8582     4.1687 O.2     
  33 O33            8.4832     2.4219     5.8626 O.2     
  34 C34            9.7189     1.2158     3.8286 C.3     
  35 C35           11.0648     1.0210     4.5297 C.3     
  36 H36            1.1323    -0.5098     3.0369 H       
  37 H37            0.8332    -1.2944     1.4534 H       
  38 H38            2.5413     1.0063     2.0196 H       
  39 H39            2.2423     0.2217     0.4361 H       
  40 H40           -2.5495     0.4214     2.2560 H       
  41 H41           -1.9340    -1.2199     1.9463 H       
  42 H42           -1.6374    -0.4400     3.5187 H       
  43 H43            2.1640     2.7813    -0.3851 H       
  44 H44            0.4835     3.3674    -0.3572 H       
  45 H45           -0.4084     7.3892     2.8555 H       
  46 H46            4.2763     4.8946     3.2787 H       
  47 H47           -0.1790     5.0638     1.1293 H       
  48 H48            2.9502     8.8779     5.7725 H       
  49 H49            2.4137    10.8998     7.1123 H       
  50 H50            0.1902    11.9689     6.8188 H       
  51 H51           -1.4140    11.0060     5.2196 H       
  52 H52            4.1762     1.6756     3.7724 H       
  53 H53            6.2970     1.5377     5.0139 H       
  54 H54            8.1763     4.0148     2.0942 H       
  55 H55            6.0622     4.1490     0.8407 H       
  56 H56            9.0990     0.3322     3.9802 H       
  57 H57            9.8834     1.3655     2.7615 H       
  58 H58           11.5682     0.1483     4.1137 H       
  59 H59           11.6847     1.9046     4.3780 H       
  60 H60           10.9004     0.8713     5.5967 H       
@<TRIPOS>BOND
   1    1    2 am
   2    1    5 am
   3    1    6 2
   4    2    3 1
   5    2    7 1
   6    3    4 1
   7    3   36 1
   8    3   37 1
   9    4    5 1
  10    4   38 1
  11    4   39 1
  12    5    8 1
  13    7   40 1
  14    7   41 1
  15    7   42 1
  16    8   16 1
  17    8   43 1
  18    8   44 1
  19    9   10 2
  20    9   13 1
  21    9   18 1
  22   10   11 1
  23   11   12 ar
  24   11   14 ar
  25   12   13 1
  26   12   17 ar
  27   13   45 1
  28   14   15 ar
  29   14   46 1
  30   15   16 ar
  31   15   24 1
  32   16   17 ar
  33   17   47 1
  34   18   19 ar
  35   18   23 ar
  36   19   20 ar
  37   19   48 1
  38   20   21 ar
  39   20   49 1
  40   21   22 ar
  41   21   50 1
  42   22   23 ar
  43   22   51 1
  44   24   25 1
  45   25   26 ar
  46   25   30 ar
  47   26   27 ar
  48   26   52 1
  49   27   28 ar
  50   27   53 1
  51   28   29 ar
  52   28   31 1
  53   29   30 ar
  54   29   54 1
  55   30   55 1
  56   31   32 2
  57   31   33 2
  58   31   34 1
  59   34   35 1
  60   34   56 1
  61   34   57 1
  62   35   58 1
  63   35   59 1
  64   35   60 1

#	End of record

