#	Name: ASD07930700
#	Creating user name:	WinNT
#	Creation time:	15. 06. 2019 21:13

#	Modifying user name:	WinNT
#	Modification time:	15. 06. 2019 21:13

#	Program:	/corina/corina34_cracker 3.40 0067  02.08.2006

@<TRIPOS>MOLECULE
ASD07930700
  39   41    0    0    0
SMALL
NO_CHARGES


@<TRIPOS>ATOM
   1 C1            -0.0796     1.4535     0.2308 C.3     
   2 N2             0.6399    -0.2639    -2.1024 N.2     
   3 N3            -0.9615    -1.7202    -1.2215 N.pl3   
   4 C4            -0.9005    -2.8248    -0.2586 C.3     
   5 C5            -1.1376    -2.2771     1.1555 C.3     
   6 S6             0.0936    -0.9754     1.4777 S.o2    
   7 N7            -0.0342    -0.0071     0.1277 N.am    
   8 C8            -0.0958    -0.6527    -1.0991 C.2     
   9 C9             0.4778    -3.4858    -0.3261 C.3     
  10 O10           -0.3204    -0.1448     2.5538 O.2     
  11 O11            1.4120    -1.5019     1.4166 O.2     
  12 C12           -1.9634    -3.8404    -0.5898 C.2     
  13 C13           -2.1470    -4.9501     0.1338 C.2     
  14 C14           -2.8233    -3.6916    -1.6587 C.2     
  15 C15           -3.7123    -4.6930    -1.8104 C.2     
  16 S16           -3.4679    -5.8911    -0.5461 S.3     
  17 C17           -4.7371    -4.7706    -2.8730 C.ar    
  18 C18           -5.6112    -5.8587    -2.9368 C.ar    
  19 C19           -6.5615    -5.8823    -3.9622 C.ar    
  20 C20           -6.5993    -4.8259    -4.8751 C.ar    
  21 N21           -5.7556    -3.8187    -4.7789 N.ar    
  22 C22           -4.8495    -3.7544    -3.8249 C.ar    
  23 C23           -7.4819    -6.9735    -4.0750 C.1     
  24 Cl24          -1.2204    -5.3950     1.5328 Cl      
  25 N25           -8.2120    -7.8392    -4.1645 N.1     
  26 H26            0.9337     1.8527     0.1859 H       
  27 H27           -0.6663     1.8579    -0.5940 H       
  28 H28           -0.5401     1.7368     1.1773 H       
  29 H29            1.2433     0.4884    -1.9984 H       
  30 H30           -1.6067    -1.7419    -1.9455 H       
  31 H31           -2.1416    -1.8583     1.2237 H       
  32 H32           -1.0233    -3.0795     1.8843 H       
  33 H33            1.2455    -2.7507    -0.0844 H       
  34 H34            0.5225    -4.3066     0.3897 H       
  35 H35            0.6472    -3.8709    -1.3316 H       
  36 H36           -2.7869    -2.8396    -2.3214 H       
  37 H37           -5.5543    -6.6594    -2.2143 H       
  38 H38           -7.3297    -4.8351    -5.6707 H       
  39 H39           -4.1781    -2.9095    -3.7839 H       
@<TRIPOS>BOND
   1    1    7 1
   2    1   26 1
   3    1   27 1
   4    1   28 1
   5    2    8 2
   6    2   29 1
   7    3    4 1
   8    3    8 1
   9    3   30 1
  10    4    5 1
  11    4    9 1
  12    4   12 1
  13    5    6 1
  14    5   31 1
  15    5   32 1
  16    6    7 am
  17    6   10 2
  18    6   11 2
  19    7    8 1
  20    9   33 1
  21    9   34 1
  22    9   35 1
  23   12   14 1
  24   12   13 2
  25   13   24 1
  26   13   16 1
  27   14   15 2
  28   14   36 1
  29   15   16 1
  30   15   17 1
  31   17   18 ar
  32   17   22 ar
  33   18   19 ar
  34   18   37 1
  35   19   20 ar
  36   19   23 1
  37   20   21 ar
  38   20   38 1
  39   21   22 ar
  40   22   39 1
  41   23   25 3

#	End of record

