#	Name: ASD03950001
#	Creating user name:	WinNT
#	Creation time:	15. 06. 2019 20:47

#	Modifying user name:	WinNT
#	Modification time:	15. 06. 2019 20:47

#	Program:	/corina/corina34_cracker 3.40 0067  02.08.2006

@<TRIPOS>MOLECULE
ASD03950001
  36   38    0    0    0
SMALL
NO_CHARGES


@<TRIPOS>ATOM
   1 N1            -0.0175     1.3664    -0.0244 N.pl3   
   2 C2             0.0015    -0.0041    -0.0178 C.2     
   3 N3            -1.2451    -0.4301     0.0331 N.2     
   4 N4             2.4081    -0.0034    -0.1127 N.2     
   5 C5             1.1816     2.0598    -0.0744 C.ar    
   6 C6             1.2935    -0.6964    -0.0651 C.2     
   7 C7             2.3955     1.3537    -0.1177 C.ar    
   8 C8            -1.3213     1.7501     0.0295 C.2     
   9 C9            -2.0670     0.6199     0.0596 C.2     
  10 C10            1.1902     3.4488    -0.0811 C.ar    
  11 N11            1.3382    -2.0780    -0.0591 N.pl3   
  12 C12            3.6018     2.0638    -0.1690 C.ar    
  13 C13            2.3876     4.1314    -0.1305 C.ar    
  14 C14            3.5889     3.4398    -0.1733 C.ar    
  15 N15            3.6926    -4.9751    -0.1359 N.3     
  16 C16           -1.8388     3.1654     0.0441 C.3     
  17 C17            2.6289    -2.7694    -0.1062 C.3     
  18 C18            2.3983    -4.2818    -0.0886 C.3     
  19 C19            2.3906     5.6384    -0.1385 C.3     
  20 H20           -3.1453     0.5763     0.1017 H       
  21 H21            0.2588     3.9944    -0.0479 H       
  22 H22            0.5149    -2.5897    -0.0236 H       
  23 H23            4.5410     1.5319    -0.2049 H       
  24 H24            4.5204     3.9847    -0.2129 H       
  25 H25            4.2901    -4.6775     0.6207 H       
  26 H26            3.5671    -5.9762    -0.1253 H       
  27 H27           -1.8935     3.5428    -0.9770 H       
  28 H28           -2.8323     3.1844     0.4922 H       
  29 H29           -1.1649     3.7926     0.6277 H       
  30 H30            3.1561    -2.4929    -1.0194 H       
  31 H31            3.2265    -2.4828     0.7592 H       
  32 H32            1.8008    -4.5683    -0.9540 H       
  33 H33            1.8712    -4.5583     0.8245 H       
  34 H34            2.4307     6.0071     0.8865 H       
  35 H35            3.2610     5.9971    -0.6879 H       
  36 H36            1.4824     6.0010    -0.6198 H       
@<TRIPOS>BOND
   1    1    2 1
   2    1    5 1
   3    1    8 1
   4    2    3 2
   5    2    6 1
   6    3    9 1
   7    4    7 1
   8    4    6 2
   9    5    7 ar
  10    5   10 ar
  11    6   11 1
  12    7   12 ar
  13    8    9 2
  14    8   16 1
  15    9   20 1
  16   10   13 ar
  17   10   21 1
  18   11   17 1
  19   11   22 1
  20   12   14 ar
  21   12   23 1
  22   13   14 ar
  23   13   19 1
  24   14   24 1
  25   15   18 1
  26   15   25 1
  27   15   26 1
  28   16   27 1
  29   16   28 1
  30   16   29 1
  31   17   18 1
  32   17   30 1
  33   17   31 1
  34   18   32 1
  35   18   33 1
  36   19   34 1
  37   19   35 1
  38   19   36 1

#	End of record

