#	Name: ASD00170561
#	Creating user name:	WinNT
#	Creation time:	15. 06. 2019 18:32

#	Modifying user name:	WinNT
#	Modification time:	15. 06. 2019 18:32

#	Program:	/corina/corina34_cracker 3.40 0067  02.08.2006

@<TRIPOS>MOLECULE
ASD00170561
  53   56    0    0    0
SMALL
NO_CHARGES


@<TRIPOS>ATOM
   1 C1            -0.2567     0.5203    -0.4522 C.3     
   2 C2            -0.7468    -0.9163    -0.6537 C.3     
   3 C3            -2.2497    -0.9816    -0.3724 C.3     
   4 N4            -2.5105    -0.5451     1.0052 N.3     
   5 C5            -2.0914     0.8474     1.2094 C.3     
   6 C6            -0.5838     0.9673     0.9753 C.3     
   7 C7            -3.9256    -0.7257     1.3557 C.3     
   8 C8            -4.1174    -0.4554     2.8259 C.2     
   9 C9            -4.0870    -1.4020     3.7509 C.2     
  10 S10           -4.3467    -0.7254     5.3486 S.3     
  11 C11           -4.4963     0.8586     4.7374 C.2     
  12 C12           -4.3475     0.8664     3.3699 C.2     
  13 C13           -4.4235     2.0774     2.5529 C.2     
  14 O14           -3.4452     2.7922     2.4313 O.2     
  15 C15           -5.6885     2.4335     1.8747 C.ar    
  16 C16           -5.7344     3.5251     1.0056 C.ar    
  17 C17           -6.9167     3.8521     0.3757 C.ar    
  18 C18           -8.0574     3.1003     0.6042 C.ar    
  19 C19           -8.0180     2.0164     1.4658 C.ar    
  20 C20           -6.8400     1.6760     2.0966 C.ar    
  21 N21           -4.7289     1.9793     5.5086 N.pl3   
  22 Cl22          -9.5423     3.5184    -0.1919 Cl      
  23 N23            1.1918     0.5775    -0.6634 N.pl3   
  24 C24            1.7945     1.7770    -1.0516 C.ar    
  25 C25            3.1678     1.8328    -1.2522 C.ar    
  26 C26            3.7607     3.0196    -1.6358 C.ar    
  27 C27            2.9880     4.1527    -1.8203 C.ar    
  28 C28            1.6197     4.1002    -1.6207 C.ar    
  29 C29            1.0206     2.9144    -1.2431 C.ar    
  30 Cl30           3.7367     5.6429    -2.3024 Cl      
  31 H31           -0.7549     1.1783    -1.1642 H       
  32 H32           -0.5552    -1.2255    -1.6812 H       
  33 H33           -0.2192    -1.5802     0.0311 H       
  34 H34           -2.7779    -0.3280    -1.0666 H       
  35 H35           -2.5991    -2.0060    -0.5010 H       
  36 H36           -2.6203     1.4925     0.5077 H       
  37 H37           -2.3258     1.1514     2.2295 H       
  38 H38           -0.0536     0.3330     1.6857 H       
  39 H39           -0.2756     2.0039     1.1116 H       
  40 H40           -4.5348    -0.0320     0.7763 H       
  41 H41           -4.2276    -1.7488     1.1319 H       
  42 H42           -3.9245    -2.4505     3.5490 H       
  43 H43           -4.8458     4.1125     0.8273 H       
  44 H44           -6.9535     4.6964    -0.2968 H       
  45 H45           -8.9107     1.4341     1.6404 H       
  46 H46           -6.8104     0.8305     2.7679 H       
  47 H47           -4.8915     1.8879     6.4605 H       
  48 H48           -4.7296     2.8585     5.0987 H       
  49 H49            1.7326    -0.2173    -0.5338 H       
  50 H50            3.7714     0.9488    -1.1080 H       
  51 H51            4.8285     3.0636    -1.7915 H       
  52 H52            1.0191     4.9861    -1.7647 H       
  53 H53           -0.0474     2.8739    -1.0878 H       
@<TRIPOS>BOND
   1    1    2 1
   2    1   23 1
   3    1    6 1
   4    1   31 1
   5    2    3 1
   6    2   32 1
   7    2   33 1
   8    3    4 1
   9    3   34 1
  10    3   35 1
  11    4    5 1
  12    4    7 1
  13    5    6 1
  14    5   36 1
  15    5   37 1
  16    6   38 1
  17    6   39 1
  18    7    8 1
  19    7   40 1
  20    7   41 1
  21    8    9 2
  22    8   12 1
  23    9   10 1
  24    9   42 1
  25   10   11 1
  26   11   12 2
  27   11   21 1
  28   12   13 1
  29   13   14 2
  30   13   15 1
  31   15   16 ar
  32   15   20 ar
  33   16   17 ar
  34   16   43 1
  35   17   18 ar
  36   17   44 1
  37   18   19 ar
  38   18   22 1
  39   19   20 ar
  40   19   45 1
  41   20   46 1
  42   21   47 1
  43   21   48 1
  44   23   24 1
  45   23   49 1
  46   24   25 ar
  47   24   29 ar
  48   25   26 ar
  49   25   50 1
  50   26   27 ar
  51   26   51 1
  52   27   28 ar
  53   27   30 1
  54   28   29 ar
  55   28   52 1
  56   29   53 1

#	End of record

