#	Name: ASD00461014
#	Creating user name:	WinNT
#	Creation time:	15. 06. 2019 18:36

#	Modifying user name:	WinNT
#	Modification time:	15. 06. 2019 18:36

#	Program:	/corina/corina34_cracker 3.40 0067  02.08.2006

@<TRIPOS>MOLECULE
ASD00461014
  39   41    0    0    0
SMALL
NO_CHARGES


@<TRIPOS>ATOM
   1 C1             1.8343     1.4317     1.2693 C.ar    
   2 C2             2.1185     0.0836     1.3794 C.ar    
   3 C3             1.4347     1.9569     0.0544 C.ar    
   4 C4             2.0032    -0.7397     0.2747 C.ar    
   5 C5             1.1248     3.4268    -0.0657 C.3     
   6 C6             1.3198     1.1340    -1.0501 C.ar    
   7 C7             2.3135    -2.2095     0.3946 C.3     
   8 C8             1.6028    -0.2148    -0.9396 C.ar    
   9 C9             1.9008     4.0113    -1.2178 C.2     
  10 O10           -0.2746     3.6014    -0.2965 O.3     
  11 C11            1.5208     4.1390     1.2293 C.3     
  12 C12            0.8843     1.7065    -2.3743 C.3     
  13 S13            1.2161     4.9362    -2.4832 S.3     
  14 N14            3.1726     3.8882    -1.3831 N.2     
  15 C15            2.7935     5.1103    -3.2251 C.2     
  16 C16            3.7110     4.4646    -2.4469 C.2     
  17 C17            3.1642     5.8246    -4.4990 C.3     
  18 C18            5.1478     4.4842    -2.8445 C.2     
  19 C19            4.5852     6.3731    -4.3573 C.3     
  20 C20            5.5223     5.3686    -3.7584 C.2     
  21 H21           -0.5884     3.2110    -1.1237 H       
  22 H22            1.9200     2.0739     2.1333 H       
  23 H23            2.4310    -0.3267     2.3283 H       
  24 H24            1.4074    -2.7513     0.6656 H       
  25 H25            2.6873    -2.5810    -0.5595 H       
  26 H26            3.0704    -2.3594     1.1645 H       
  27 H27            1.5127    -0.8579    -1.8026 H       
  28 H28            2.5882     4.0058     1.4054 H       
  29 H29            1.2967     5.2021     1.1425 H       
  30 H30            0.9596     3.7162     2.0627 H       
  31 H31            1.7630     1.9477    -2.9725 H       
  32 H32            0.2741     0.9746    -2.9035 H       
  33 H33            0.3008     2.6114    -2.2046 H       
  34 H34            3.1235     5.1262    -5.3350 H       
  35 H35            2.4703     6.6471    -4.6724 H       
  36 H36            5.8591     3.8019    -2.4030 H       
  37 H37            4.9544     6.6584    -5.3424 H       
  38 H38            4.5615     7.2573    -3.7203 H       
  39 H39            6.5518     5.3666    -4.0848 H       
@<TRIPOS>BOND
   1    1    2 ar
   2    1    3 ar
   3    1   22 1
   4    2    4 ar
   5    2   23 1
   6    3    5 1
   7    3    6 ar
   8    4    7 1
   9    4    8 ar
  10    5    9 1
  11    5   10 1
  12    5   11 1
  13    6   12 1
  14    6    8 ar
  15    7   24 1
  16    7   25 1
  17    7   26 1
  18    8   27 1
  19    9   13 1
  20    9   14 2
  21   10   21 1
  22   11   28 1
  23   11   29 1
  24   11   30 1
  25   12   31 1
  26   12   32 1
  27   12   33 1
  28   13   15 1
  29   14   16 1
  30   15   16 2
  31   15   17 1
  32   16   18 1
  33   17   19 1
  34   17   34 1
  35   17   35 1
  36   18   20 2
  37   18   36 1
  38   19   20 1
  39   19   37 1
  40   19   38 1
  41   20   39 1

#	End of record

