#	Name: ASD07930359
#	Creating user name:	WinNT
#	Creation time:	15. 06. 2019 21:12

#	Modifying user name:	WinNT
#	Modification time:	15. 06. 2019 21:12

#	Program:	/corina/corina34_cracker 3.40 0067  02.08.2006

@<TRIPOS>MOLECULE
ASD07930359
  49   50    0    0    0
SMALL
NO_CHARGES


@<TRIPOS>ATOM
   1 N1            -0.0058     1.4467     0.2170 N.pl3   
   2 C2             0.0021    -0.0041     0.0020 C.3     
   3 C3             0.8305    -0.6733     1.1080 C.3     
   4 N4             2.1538     1.7084     1.1104 N.am    
   5 C5             1.1734     2.1401     0.2464 C.2     
   6 C6            -1.4106    -0.5271     0.0446 C.ar    
   7 C7            -2.1695    -0.3779     1.1925 C.ar    
   8 C8             2.8667     2.6381     1.9900 C.3     
   9 C9             0.6229    -0.3155    -1.3612 C.3     
  10 C10           -1.9504    -1.1507    -1.0644 C.ar    
  11 C11           -3.2464    -1.6307    -1.0271 C.ar    
  12 C12           -4.0050    -1.4879     0.1194 C.ar    
  13 C13           -3.4691    -0.8596     1.2301 C.ar    
  14 F14           -1.6443     0.2361     2.2753 F       
  15 F15           -4.2098    -0.7201     2.3513 F       
  16 S16            2.4898     0.0763     1.1075 S.o2    
  17 O17            3.1485    -0.1555     2.3451 O.2     
  18 O18            3.1459    -0.1516    -0.1322 O.2     
  19 N19           -3.8223    -2.2977    -2.2163 N.pl3   
  20 O20           -3.1545    -2.4234    -3.2271 O.2     
  21 O21           -4.9640    -2.7208    -2.1841 O.2     
  22 N22            1.3656     3.1935    -0.5325 N.2     
  23 O23            0.5936     4.6690    -2.1591 O.3     
  24 C24           -0.4819     5.0419    -3.0230 C.3     
  25 C25           -1.7189     5.3706    -2.1847 C.3     
  26 C26           -0.0777     6.2711    -3.8393 C.3     
  27 C27           -0.8007     3.8831    -3.9698 C.3     
  28 C28            0.3978     3.5954    -1.3652 C.2     
  29 O29           -0.6590     2.9926    -1.4064 O.2     
  30 H30           -0.8470     1.9152     0.3343 H       
  31 H31            0.3535    -0.5103     2.0745 H       
  32 H32            0.9099    -1.7426     0.9121 H       
  33 H33            2.4918     3.6490     1.8304 H       
  34 H34            2.7060     2.3507     3.0291 H       
  35 H35            3.9327     2.6061     1.7648 H       
  36 H36            1.6454     0.0610    -1.3893 H       
  37 H37            0.6284    -1.3939    -1.5202 H       
  38 H38            0.0373     0.1644    -2.1453 H       
  39 H39           -1.3593    -1.2628    -1.9613 H       
  40 H40           -5.0175    -1.8630     0.1472 H       
  41 H41           -1.4918     6.1961    -1.5101 H       
  42 H42           -2.5393     5.6550    -2.8436 H       
  43 H43           -2.0069     4.4949    -1.6031 H       
  44 H44            0.8036     6.0369    -4.4366 H       
  45 H45           -0.8980     6.5555    -4.4983 H       
  46 H46            0.1495     7.0966    -3.1648 H       
  47 H47           -1.0887     3.0074    -3.3882 H       
  48 H48           -1.6211     4.1675    -4.6287 H       
  49 H49            0.0805     3.6489    -4.5670 H       
@<TRIPOS>BOND
   1    1    2 1
   2    1    5 1
   3    1   30 1
   4    2    3 1
   5    2    6 1
   6    2    9 1
   7    3   16 1
   8    3   31 1
   9    3   32 1
  10    4    5 1
  11    4    8 1
  12    4   16 am
  13    5   22 2
  14    6   10 ar
  15    6    7 ar
  16    7   14 1
  17    7   13 ar
  18    8   33 1
  19    8   34 1
  20    8   35 1
  21    9   36 1
  22    9   37 1
  23    9   38 1
  24   10   11 ar
  25   10   39 1
  26   11   12 ar
  27   11   19 1
  28   12   13 ar
  29   12   40 1
  30   13   15 1
  31   16   17 2
  32   16   18 2
  33   19   20 2
  34   19   21 2
  35   22   28 1
  36   23   24 1
  37   23   28 1
  38   24   25 1
  39   24   26 1
  40   24   27 1
  41   25   41 1
  42   25   42 1
  43   25   43 1
  44   26   44 1
  45   26   45 1
  46   26   46 1
  47   27   47 1
  48   27   48 1
  49   27   49 1
  50   28   29 2

#	End of record

