#	Name: ASD03090195
#	Creating user name:	WinNT
#	Creation time:	15. 06. 2019 20:28

#	Modifying user name:	WinNT
#	Modification time:	15. 06. 2019 20:28

#	Program:	/corina/corina34_cracker 3.40 0067  02.08.2006

@<TRIPOS>MOLECULE
ASD03090195
  44   46    0    0    0
SMALL
NO_CHARGES


@<TRIPOS>ATOM
   1 N1             0.4458     1.5126     1.4674 N.ar    
   2 C2             1.5492     2.1899     1.2088 C.ar    
   3 C3             2.7234     1.5363     0.8892 C.ar    
   4 C4             2.7300     0.1384     0.8425 C.ar    
   5 C5             1.5378    -0.5376     1.1238 C.ar    
   6 C6             0.4102     0.1943     1.4340 C.ar    
   7 C7             3.9643    -0.6053     0.5043 C.2     
   8 N8             5.7446    -3.4533    -0.5315 N.pl3   
   9 C9             4.8183    -4.4432    -0.8760 C.ar    
  10 C10            3.6018    -4.0896    -1.4448 C.ar    
  11 C11            2.6886    -5.0689    -1.7841 C.ar    
  12 C12            2.9853    -6.4021    -1.5572 C.ar    
  13 C13            4.1978    -6.7571    -0.9900 C.ar    
  14 C14            5.1163    -5.7819    -0.6548 C.ar    
  15 N15            4.0292    -1.8612     0.1104 N.2     
  16 C16            5.3008    -2.1998    -0.1058 C.2     
  17 N17            6.0687    -1.1645     0.1468 N.2     
  18 N18            5.2231    -0.1143     0.5394 N.pl3   
  19 C19            5.6262     1.2415     0.9208 C.3     
  20 C20            5.7319     2.1136    -0.3319 C.3     
  21 C21            6.1465     3.5083     0.0605 C.2     
  22 F22            2.0903    -7.3582    -1.8891 F       
  23 Cl23           1.5238     3.9246     1.2705 Cl      
  24 N24            6.3073     4.4764    -0.9058 N.pl3   
  25 N25            6.3512     3.7958     1.3032 N.2     
  26 O26            6.7408     5.1063     1.6718 O.3     
  27 C27            4.5178    -8.2091    -0.7442 C.3     
  28 F28            5.7884    -8.3157    -0.1687 F       
  29 F29            3.5658    -8.7561     0.1228 F       
  30 F30            4.4961    -8.9034    -1.9586 F       
  31 H31            3.6226     2.0961     0.6784 H       
  32 H32            1.5006    -1.6167     1.0981 H       
  33 H33           -0.5146    -0.3191     1.6525 H       
  34 H34            6.6952    -3.6377    -0.5883 H       
  35 H35            3.3698    -3.0498    -1.6213 H       
  36 H36            1.7424    -4.7944    -2.2265 H       
  37 H37            6.0620    -6.0592    -0.2130 H       
  38 H38            4.8832     1.6649     1.5967 H       
  39 H39            6.5939     1.2056     1.4212 H       
  40 H40            6.4749     1.6902    -1.0077 H       
  41 H41            4.7642     2.1495    -0.8322 H       
  42 H42            6.1537     4.2605    -1.8389 H       
  43 H43            6.5742     5.3741    -0.6533 H       
  44 H44            6.8703     5.2253     2.6227 H       
@<TRIPOS>BOND
   1    1    2 ar
   2    1    6 ar
   3    2    3 ar
   4    2   23 1
   5    3    4 ar
   6    3   31 1
   7    4    5 ar
   8    4    7 1
   9    5    6 ar
  10    5   32 1
  11    6   33 1
  12    7   15 2
  13    7   18 1
  14    8    9 1
  15    8   16 1
  16    8   34 1
  17    9   10 ar
  18    9   14 ar
  19   10   11 ar
  20   10   35 1
  21   11   12 ar
  22   11   36 1
  23   12   13 ar
  24   12   22 1
  25   13   14 ar
  26   13   27 1
  27   14   37 1
  28   15   16 1
  29   16   17 2
  30   17   18 1
  31   18   19 1
  32   19   20 1
  33   19   38 1
  34   19   39 1
  35   20   21 1
  36   20   40 1
  37   20   41 1
  38   21   24 1
  39   21   25 2
  40   24   42 1
  41   24   43 1
  42   25   26 1
  43   26   44 1
  44   27   28 1
  45   27   29 1
  46   27   30 1

#	End of record

