#	Name: ASD02030727
#	Creating user name:	WinNT
#	Creation time:	15. 06. 2019 20:15

#	Modifying user name:	WinNT
#	Modification time:	15. 06. 2019 20:15

#	Program:	/corina/corina34_cracker 3.40 0067  02.08.2006

@<TRIPOS>MOLECULE
ASD02030727
  31   32    0    0    0
SMALL
NO_CHARGES


@<TRIPOS>ATOM
   1 N1            -0.0169     1.3957     0.0097 N.2     
   2 N2             0.0021    -0.0041     0.0020 N.am    
   3 C3             1.1646    -0.6797    -0.0123 C.2     
   4 N4             2.3448    -0.0325    -0.0200 N.am    
   5 C5             2.3757     1.3164    -0.0131 C.2     
   6 C6             1.1074     2.0610     0.0026 C.2     
   7 O7             1.1494    -1.8958    -0.0178 O.2     
   8 O8             3.4386     1.9089    -0.0192 O.2     
   9 C9            -2.0550    -0.3848     1.2689 C.3     
  10 C10           -1.2627    -0.7434     0.0101 C.3     
  11 C11           -2.0788    -0.3714    -1.2294 C.3     
  12 C12           -1.3063    -0.8621     2.4866 C.ar    
  13 C13           -0.3916    -0.0307     3.1055 C.ar    
  14 C14            0.2951    -0.4686     4.2225 C.ar    
  15 C15            0.0668    -1.7376     4.7208 C.ar    
  16 C16           -0.8486    -2.5687     4.1024 C.ar    
  17 C17           -1.5385    -2.1292     2.9880 C.ar    
  18 O18            1.1051     3.4197     0.0094 O.3     
  19 H19            3.1737    -0.5362    -0.0303 H       
  20 H20           -2.1832     0.6963     1.3219 H       
  21 H21           -3.0327    -0.8652     1.2320 H       
  22 H22           -1.0578    -1.8139     0.0024 H       
  23 H23           -2.2837     0.6992    -1.2217 H       
  24 H24           -1.5144    -0.6268    -2.1262 H       
  25 H25           -3.0198    -0.9214    -1.2234 H       
  26 H26           -0.2133     0.9607     2.7162 H       
  27 H27            1.0102     0.1807     4.7056 H       
  28 H28            0.6038    -2.0800     5.5930 H       
  29 H29           -1.0267    -3.5603     4.4915 H       
  30 H30           -2.2563    -2.7771     2.5071 H       
  31 H31            1.9878     3.8145     0.0032 H       
@<TRIPOS>BOND
   1    1    2 1
   2    1    6 2
   3    2    3 am
   4    2   10 1
   5    3    4 am
   6    3    7 2
   7    4    5 am
   8    4   19 1
   9    5    6 1
  10    5    8 2
  11    6   18 1
  12    9   10 1
  13    9   12 1
  14    9   20 1
  15    9   21 1
  16   10   11 1
  17   10   22 1
  18   11   23 1
  19   11   24 1
  20   11   25 1
  21   12   13 ar
  22   12   17 ar
  23   13   14 ar
  24   13   26 1
  25   14   15 ar
  26   14   27 1
  27   15   16 ar
  28   15   28 1
  29   16   17 ar
  30   16   29 1
  31   17   30 1
  32   18   31 1

#	End of record

