#	Name: ASD04590364
#	Creating user name:	WinNT
#	Creation time:	15. 06. 2019 20:50

#	Modifying user name:	WinNT
#	Modification time:	15. 06. 2019 20:50

#	Program:	/corina/corina34_cracker 3.40 0067  02.08.2006

@<TRIPOS>MOLECULE
ASD04590364
  36   39    0    0    0
SMALL
NO_CHARGES


@<TRIPOS>ATOM
   1 C1            -0.0168     1.3853     0.0097 C.ar    
   2 C2             0.0021    -0.0041     0.0020 C.ar    
   3 C3            -1.1750    -0.7189     0.0094 C.ar    
   4 C4            -2.3986    -0.0420     0.0252 C.ar    
   5 C5            -2.4115     1.3641     0.0333 C.ar    
   6 C6            -1.2160     2.0679     0.0305 C.ar    
   7 N7            -3.6900    -0.4548     0.0359 N.2     
   8 C8            -4.4856     0.5872     0.0498 C.2     
   9 N9            -3.7426     1.7373     0.0489 N.pl3   
  10 C10           -5.9619     0.5291     0.0648 C.2     
  11 C11           -6.7476    -0.6466     0.0670 C.2     
  12 C12           -8.0504    -0.2729     0.0832 C.2     
  13 N13           -8.0942     1.0854     0.0910 N.pl3   
  14 N14           -6.7782     1.5645     0.0843 N.2     
  15 N15           -6.2646    -1.9651     0.0547 N.am    
  16 C16           -7.1287    -2.9994     0.0585 C.2     
  17 C17           -6.6213    -4.3846     0.0455 C.ar    
  18 O18           -8.3267    -2.7908     0.0726 O.2     
  19 C19           -6.3925    -5.0387    -1.1700 C.ar    
  20 C20           -5.9165    -6.3363    -1.1729 C.ar    
  21 C21           -5.6670    -6.9883     0.0210 C.ar    
  22 C22           -5.8908    -6.3494     1.2271 C.ar    
  23 C23           -6.3607    -5.0497     1.2485 C.ar    
  24 F24           -6.5783    -4.4272     2.4276 F       
  25 F25           -6.6364    -4.4039    -2.3373 F       
  26 Cl26           1.4780     2.2680     0.0001 Cl      
  27 Cl27           1.5207    -0.8450    -0.0176 Cl      
  28 H28           -1.1532    -1.7986     0.0027 H       
  29 H29           -1.2239     3.1479     0.0371 H       
  30 H30           -4.0860     2.6444     0.0575 H       
  31 H31           -8.9024    -0.9367     0.0884 H       
  32 H32           -8.8976     1.6288     0.1024 H       
  33 H33           -5.3090    -2.1315     0.0434 H       
  34 H34           -5.7393    -6.8427    -2.1102 H       
  35 H35           -5.2955    -8.0024     0.0115 H       
  36 H36           -5.6940    -6.8661     2.1548 H       
@<TRIPOS>BOND
   1    1    2 ar
   2    1   26 1
   3    1    6 ar
   4    2    3 ar
   5    2   27 1
   6    3    4 ar
   7    3   28 1
   8    4    5 ar
   9    4    7 1
  10    5    6 ar
  11    5    9 1
  12    6   29 1
  13    7    8 2
  14    8    9 1
  15    8   10 1
  16    9   30 1
  17   10   11 1
  18   10   14 2
  19   11   12 2
  20   11   15 1
  21   12   13 1
  22   12   31 1
  23   13   14 1
  24   13   32 1
  25   15   16 am
  26   15   33 1
  27   16   17 1
  28   16   18 2
  29   17   19 ar
  30   17   23 ar
  31   19   20 ar
  32   19   25 1
  33   20   21 ar
  34   20   34 1
  35   21   22 ar
  36   21   35 1
  37   22   23 ar
  38   22   36 1
  39   23   24 1

#	End of record

