#	Name: ASD01815145
#	Creating user name:	WinNT
#	Creation time:	15. 06. 2019 19:33

#	Modifying user name:	WinNT
#	Modification time:	15. 06. 2019 19:33

#	Program:	/corina/corina34_cracker 3.40 0067  02.08.2006

@<TRIPOS>MOLECULE
ASD01815145
  53   56    0    0    0
SMALL
NO_CHARGES


@<TRIPOS>ATOM
   1 C1            -0.0184     1.5040     0.0103 C.3     
   2 C2             0.0021    -0.0041     0.0020 C.ar    
   3 C3             1.3466    -0.3810    -0.0128 C.ar    
   4 C4             2.1703     0.8431    -0.0141 C.2     
   5 C5            -0.9888    -0.9618     0.0063 C.ar    
   6 C6            -0.6505    -2.3067    -0.0041 C.ar    
   7 C7             0.6791    -2.6889    -0.0189 C.ar    
   8 C8             1.6779    -1.7374    -0.0237 C.ar    
   9 O9             3.3856     0.8627    -0.0260 O.2     
  10 C10            1.0381    -4.1524    -0.0297 C.3     
  11 C11            1.0238    -4.6627    -1.4476 C.ar    
  12 C12           -0.1422    -5.1761    -1.9846 C.ar    
  13 C13            2.1754    -4.6115    -2.2111 C.ar    
  14 C14            2.1648    -5.0782    -3.5113 C.ar    
  15 C15            0.9976    -5.5990    -4.0506 C.ar    
  16 C16           -0.1579    -5.6445    -3.2841 C.ar    
  17 N17            1.3846     1.9337    -0.0008 N.am    
  18 C18            1.8518     3.3222     0.0015 C.3     
  19 C19           -1.7338    -3.3543     0.0011 C.3     
  20 O20            0.9845    -6.0584    -5.3295 O.3     
  21 F21            1.9019     3.3553    -2.3905 F       
  22 F22           -2.2879    -0.5911     0.0212 F       
  23 C23            4.0322     5.2790    -0.0096 C.3     
  24 C24            3.1977     5.0197     1.2463 C.3     
  25 C25            2.7098     3.5696     1.2439 C.3     
  26 C26            2.6864     3.5815    -1.2544 C.3     
  27 C27            3.1743     5.0316    -1.2521 C.3     
  28 C28           -0.2524    -6.5809    -5.8185 C.3     
  29 H29           -0.5312     1.8765    -0.8764 H       
  30 H30           -0.5142     1.8669     0.9106 H       
  31 H31            2.7142    -2.0411    -0.0352 H       
  32 H32            2.0334    -4.2855     0.3944 H       
  33 H33            0.3128    -4.7088     0.5640 H       
  34 H34           -1.0415    -5.2114    -1.3875 H       
  35 H35            3.0839    -4.2059    -1.7908 H       
  36 H36            3.0644    -5.0373    -4.1075 H       
  37 H37           -1.0689    -6.0458    -3.7030 H       
  38 H38            0.9938     3.9943     0.0127 H       
  39 H39           -2.0051    -3.6015    -1.0252 H       
  40 H40           -1.3712    -4.2494     0.5066 H       
  41 H41           -2.6085    -2.9699     0.5257 H       
  42 H42            4.3799     6.3121    -0.0079 H       
  43 H43            4.8903     4.6069    -0.0208 H       
  44 H44            3.8089     5.1959     2.1314 H       
  45 H45            2.3397     5.6918     1.2575 H       
  46 H46            2.1152     3.3848     2.1387 H       
  47 H47            3.5678     2.8975     1.2327 H       
  48 H48            3.5444     2.9094    -1.2657 H       
  49 H49            2.3163     5.7037    -1.2408 H       
  50 H50            3.7689     5.2163    -2.1468 H       
  51 H51           -0.1247    -6.9122    -6.8491 H       
  52 H52           -0.5597    -7.4249    -5.2010 H       
  53 H53           -1.0161    -5.8043    -5.7785 H       
@<TRIPOS>BOND
   1    1    2 1
   2    1   17 1
   3    1   29 1
   4    1   30 1
   5    2    3 ar
   6    2    5 ar
   7    3    4 1
   8    3    8 ar
   9    4    9 2
  10    4   17 am
  11    5    6 ar
  12    5   22 1
  13    6    7 ar
  14    6   19 1
  15    7   10 1
  16    7    8 ar
  17    8   31 1
  18   10   11 1
  19   10   32 1
  20   10   33 1
  21   11   13 ar
  22   11   12 ar
  23   12   16 ar
  24   12   34 1
  25   13   14 ar
  26   13   35 1
  27   14   15 ar
  28   14   36 1
  29   15   16 ar
  30   15   20 1
  31   16   37 1
  32   17   18 1
  33   18   26 1
  34   18   25 1
  35   18   38 1
  36   19   39 1
  37   19   40 1
  38   19   41 1
  39   20   28 1
  40   21   26 1
  41   23   24 1
  42   23   27 1
  43   23   42 1
  44   23   43 1
  45   24   25 1
  46   24   44 1
  47   24   45 1
  48   25   46 1
  49   25   47 1
  50   26   27 1
  51   26   48 1
  52   27   49 1
  53   27   50 1
  54   28   51 1
  55   28   52 1
  56   28   53 1

#	End of record

