#	Name: ASD01120214
#	Creating user name:	WinNT
#	Creation time:	15. 06. 2019 18:59

#	Modifying user name:	WinNT
#	Modification time:	15. 06. 2019 18:59

#	Program:	/corina/corina34_cracker 3.40 0067  02.08.2006

@<TRIPOS>MOLECULE
ASD01120214
  32   34    0    0    0
SMALL
NO_CHARGES


@<TRIPOS>ATOM
   1 C1             0.1329     0.6969    -0.7869 C.ar    
   2 C2             0.2920    -0.6792    -0.7424 C.ar    
   3 C3             1.5463    -1.2340    -0.5835 C.ar    
   4 C4             2.6551    -0.4122    -0.4681 C.ar    
   5 C5             2.4986     0.9815    -0.5131 C.ar    
   6 C6             1.2256     1.5291    -0.6735 C.ar    
   7 O7             3.9786    -0.6428    -0.3076 O.3     
   8 C8             4.6083     0.5441    -0.2560 C.2     
   9 N9             3.7425     1.5179    -0.3766 N.2     
  10 N10            5.9656     0.7106    -0.0985 N.am    
  11 S11            6.6282     2.2264    -0.1748 S.o2    
  12 O12            5.8508     3.0479     0.6854 O.2     
  13 O13            8.0318     2.0585    -0.0299 O.2     
  14 C14            6.3654     2.8288    -1.8096 C.ar    
  15 C15            6.9576     2.1916    -2.8851 C.ar    
  16 C16            6.7508     2.6644    -4.1690 C.ar    
  17 C17            5.9523     3.7728    -4.3768 C.ar    
  18 C18            5.3595     4.4100    -3.3010 C.ar    
  19 C19            5.5628     3.9347    -2.0179 C.ar    
  20 Cl20           7.9608     0.7990    -2.6241 Cl      
  21 Cl21           4.3564     5.8026    -3.5621 Cl      
  22 C22           -0.9125    -1.5762    -0.8677 C.3     
  23 H23           -0.8526     1.1194    -0.9156 H       
  24 H24            1.6626    -2.3072    -0.5490 H       
  25 H25            1.0969     2.6008    -0.7094 H       
  26 H26            6.5339    -0.0599     0.0573 H       
  27 H27            7.2137     2.1673    -5.0087 H       
  28 H28            5.7912     4.1421    -5.3789 H       
  29 H29            5.0999     4.4318    -1.1782 H       
  30 H30           -1.0825    -1.8115    -1.9183 H       
  31 H31           -0.7385    -2.4979    -0.3125 H       
  32 H32           -1.7877    -1.0679    -0.4630 H       
@<TRIPOS>BOND
   1    1    2 ar
   2    1    6 ar
   3    1   23 1
   4    2    3 ar
   5    2   22 1
   6    3    4 ar
   7    3   24 1
   8    4    5 ar
   9    4    7 1
  10    5    6 ar
  11    5    9 1
  12    6   25 1
  13    7    8 1
  14    8    9 2
  15    8   10 1
  16   10   11 am
  17   10   26 1
  18   11   12 2
  19   11   13 2
  20   11   14 1
  21   14   15 ar
  22   14   19 ar
  23   15   16 ar
  24   15   20 1
  25   16   17 ar
  26   16   27 1
  27   17   18 ar
  28   17   28 1
  29   18   19 ar
  30   18   21 1
  31   19   29 1
  32   22   30 1
  33   22   31 1
  34   22   32 1

#	End of record

