#	Name: ASD01230390
#	Creating user name:	WinNT
#	Creation time:	15. 06. 2019 19:14

#	Modifying user name:	WinNT
#	Modification time:	15. 06. 2019 19:14

#	Program:	/corina/corina34_cracker 3.40 0067  02.08.2006

@<TRIPOS>MOLECULE
ASD01230390
  43   46    0    0    0
SMALL
NO_CHARGES


@<TRIPOS>ATOM
   1 S1            -0.0204     1.6504     0.0111 S.o2    
   2 N2             0.0021    -0.0041     0.0020 N.am    
   3 C3             1.0229    -0.6873    -0.4557 C.2     
   4 N4             2.1690    -0.1517    -0.9710 N.pl3   
   5 C5             2.3936     1.2855    -1.1469 C.3     
   6 C6             1.7501     2.0749    -0.0035 C.3     
   7 C7             0.8951    -2.1589    -0.3951 C.2     
   8 C8             1.9455    -2.9418    -0.8228 C.2     
   9 C9             3.1042    -2.3188    -1.3057 C.2     
  10 C10            3.1910    -0.9786    -1.3645 C.2     
  11 C11           -0.3451    -2.7835     0.1188 C.ar    
  12 C12           -0.3157    -3.5358     1.2933 C.ar    
  13 C13           -1.4748    -4.1149     1.7673 C.ar    
  14 C14           -2.6645    -3.9508     1.0805 C.ar    
  15 C15           -2.7001    -3.2062    -0.0851 C.ar    
  16 C16           -1.5489    -2.6173    -0.5664 C.ar    
  17 C17           -3.9269    -4.5860     1.6038 C.3     
  18 C18           -4.6231    -3.6272     2.5350 C.ar    
  19 C19           -5.5537    -2.7339     2.0380 C.ar    
  20 C20           -6.1922    -1.8544     2.8921 C.ar    
  21 C21           -5.9005    -1.8684     4.2432 C.ar    
  22 C22           -4.9706    -2.7622     4.7404 C.ar    
  23 C23           -4.3352    -3.6447     3.8869 C.ar    
  24 F24           -4.7730    -4.8933     0.5329 F       
  25 F25           -3.6064    -5.7587     2.2962 F       
  26 O26           -0.6346     2.0064    -1.2198 O.2     
  27 O27           -0.6110     1.9931     1.2573 O.2     
  28 H28            3.4656     1.4827    -1.1611 H       
  29 H29            1.9576     1.6042    -2.0937 H       
  30 H30            1.8743     3.1443    -0.1744 H       
  31 H31            2.2074     1.7938     0.9452 H       
  32 H32            1.8769    -4.0190    -0.7861 H       
  33 H33            3.9375    -2.9225    -1.6337 H       
  34 H34            4.1021    -0.5345    -1.7374 H       
  35 H35            0.6125    -3.6649     1.8302 H       
  36 H36           -1.4533    -4.6978     2.6763 H       
  37 H37           -3.6318    -3.0824    -0.6172 H       
  38 H38           -1.5788    -2.0327    -1.4739 H       
  39 H39           -5.7816    -2.7230     0.9824 H       
  40 H40           -6.9188    -1.1560     2.5037 H       
  41 H41           -6.3989    -1.1807     4.9104 H       
  42 H42           -4.7424    -2.7729     5.7959 H       
  43 H43           -3.6114    -4.3456     4.2758 H       
@<TRIPOS>BOND
   1    1    2 am
   2    1    6 1
   3    1   26 2
   4    1   27 2
   5    2    3 2
   6    3    4 1
   7    3    7 1
   8    4    5 1
   9    4   10 1
  10    5    6 1
  11    5   28 1
  12    5   29 1
  13    6   30 1
  14    6   31 1
  15    7    8 2
  16    7   11 1
  17    8    9 1
  18    8   32 1
  19    9   10 2
  20    9   33 1
  21   10   34 1
  22   11   12 ar
  23   11   16 ar
  24   12   13 ar
  25   12   35 1
  26   13   14 ar
  27   13   36 1
  28   14   15 ar
  29   14   17 1
  30   15   16 ar
  31   15   37 1
  32   16   38 1
  33   17   18 1
  34   17   24 1
  35   17   25 1
  36   18   19 ar
  37   18   23 ar
  38   19   20 ar
  39   19   39 1
  40   20   21 ar
  41   20   40 1
  42   21   22 ar
  43   21   41 1
  44   22   23 ar
  45   22   42 1
  46   23   43 1

#	End of record

