#	Name: ASD08150357
#	Creating user name:	WinNT
#	Creation time:	15. 06. 2019 21:15

#	Modifying user name:	WinNT
#	Modification time:	15. 06. 2019 21:15

#	Program:	/corina/corina34_cracker 3.40 0067  02.08.2006

@<TRIPOS>MOLECULE
ASD08150357
  49   53    0    0    0
SMALL
NO_CHARGES


@<TRIPOS>ATOM
   1 C1             1.2477    -0.4188     1.1638 C.3     
   2 N2             1.7515    -4.5459    -1.4608 N.am    
   3 C3             2.8569    -4.5885    -2.2296 C.2     
   4 C4             2.8458    -5.2448    -3.4773 C.2     
   5 C5             1.7135    -5.8462    -3.9228 C.2     
   6 C6             0.5487    -5.8039    -3.1163 C.ar    
   7 C7            -0.6517    -6.4119    -3.5312 C.ar    
   8 N8            -1.7246    -6.3713    -2.7854 N.ar    
   9 C9            -1.7471    -5.7556    -1.5934 C.ar    
  10 C10           -0.5843    -5.1173    -1.0963 C.ar    
  11 C11            0.5933    -5.1423    -1.8796 C.ar    
  12 C12           -0.6184    -4.4779     0.1471 C.ar    
  13 C13           -1.7927    -4.4760     0.8810 C.ar    
  14 C14           -2.9392    -5.1096     0.3828 C.ar    
  15 C15           -2.9222    -5.7357    -0.8246 C.ar    
  16 O16            3.8805    -4.0519    -1.8414 O.2     
  17 C17           -1.8372    -3.8001     2.2019 C.2     
  18 C18            1.7895    -3.8926    -0.2235 C.ar    
  19 C19            2.1064    -4.6014     0.9284 C.ar    
  20 C20            2.1435    -3.9538     2.1474 C.ar    
  21 C21            1.8655    -2.6010     2.2223 C.ar    
  22 C22            1.5498    -1.8926     1.0776 C.ar    
  23 C23            1.5162    -2.5334    -0.1456 C.ar    
  24 C24            1.9065    -1.8976     3.5544 C.3     
  25 C25           -1.1747    -2.6065     2.5489 C.2     
  26 N26           -1.4579    -2.3324     3.7947 N.2     
  27 N27           -2.3052    -3.3316     4.2886 N.pl3   
  28 C28           -2.5321    -4.2189     3.2990 C.2     
  29 C29           -2.8550    -3.3985     5.6449 C.3     
  30 H30            2.1702     0.1490     1.0416 H       
  31 H31            0.5456    -0.1451     0.3763 H       
  32 H32            0.8090    -0.1941     2.1360 H       
  33 H33            3.7412    -5.2687    -4.0807 H       
  34 H34            1.7002    -6.3495    -4.8782 H       
  35 H35           -0.6867    -6.9209    -4.4831 H       
  36 H36            0.2646    -3.9896     0.5322 H       
  37 H37           -3.8485    -5.1006     0.9655 H       
  38 H38           -3.8151    -6.2186    -1.1933 H       
  39 H39            2.3231    -5.6578     0.8706 H       
  40 H40            2.3894    -4.5044     3.0434 H       
  41 H41            1.2738    -1.9786    -1.0400 H       
  42 H42            2.9116    -1.5156     3.7329 H       
  43 H43            1.1984    -1.0689     3.5497 H       
  44 H44            1.6390    -2.5995     4.3443 H       
  45 H45           -0.5425    -2.0201     1.8986 H       
  46 H46           -3.1465    -5.1047     3.3650 H       
  47 H47           -3.8092    -2.8726     5.6765 H       
  48 H48           -3.0053    -4.4411     5.9250 H       
  49 H49           -2.1595    -2.9315     6.3423 H       
@<TRIPOS>BOND
   1    1   22 1
   2    1   30 1
   3    1   31 1
   4    1   32 1
   5    2    3 am
   6    2   11 1
   7    2   18 1
   8    3    4 1
   9    3   16 2
  10    4    5 2
  11    4   33 1
  12    5    6 1
  13    5   34 1
  14    6    7 ar
  15    6   11 ar
  16    7    8 ar
  17    7   35 1
  18    8    9 ar
  19    9   10 ar
  20    9   15 ar
  21   10   11 ar
  22   10   12 ar
  23   12   13 ar
  24   12   36 1
  25   13   14 ar
  26   13   17 1
  27   14   15 ar
  28   14   37 1
  29   15   38 1
  30   17   25 1
  31   17   28 2
  32   18   19 ar
  33   18   23 ar
  34   19   20 ar
  35   19   39 1
  36   20   21 ar
  37   20   40 1
  38   21   22 ar
  39   21   24 1
  40   22   23 ar
  41   23   41 1
  42   24   42 1
  43   24   43 1
  44   24   44 1
  45   25   26 2
  46   25   45 1
  47   26   27 1
  48   27   28 1
  49   27   29 1
  50   28   46 1
  51   29   47 1
  52   29   48 1
  53   29   49 1

#	End of record

