#	Name: ASD01883872
#	Creating user name:	WinNT
#	Creation time:	15. 06. 2019 19:47

#	Modifying user name:	WinNT
#	Modification time:	15. 06. 2019 19:47

#	Program:	/corina/corina34_cracker 3.40 0067  02.08.2006

@<TRIPOS>MOLECULE
ASD01883872
  48   52    0    0    0
SMALL
NO_CHARGES


@<TRIPOS>ATOM
   1 O1            -0.0288     1.3401     0.0387 O.3     
   2 C2             0.0013    -0.0170     0.0226 C.2     
   3 C3             1.1966    -2.0823    -0.1268 C.2     
   4 C4             1.1902    -0.6763    -0.1127 C.2     
   5 C5            -1.1939    -0.7545     0.1513 C.2     
   6 C6            -1.1664    -2.1020     0.1359 C.2     
   7 N7             1.6437    -4.1660    -0.1959 N.2     
   8 N8             2.1568    -2.9869    -0.2398 N.2     
   9 N9             0.0144    -2.7706    -0.0039 N.pl3   
  10 C10            0.3465    -4.0920    -0.0530 C.2     
  11 C11           -0.6076    -5.2548     0.0399 C.3     
  12 C12           -0.7739    -5.6622     1.5053 C.3     
  13 C13           -1.7973    -6.7543     1.8231 C.3     
  14 C14           -0.3006    -7.0604     1.9078 C.3     
  15 C15            2.4787     0.0938    -0.2458 C.3     
  16 F16            2.1977     1.4615    -0.3334 F       
  17 F17            3.2832    -0.1463     0.8733 F       
  18 F18            3.1515    -0.3189    -1.4009 F       
  19 C19           -0.6960     1.9871    -1.0467 C.3     
  20 C20           -0.7343     3.4958    -0.7952 C.3     
  21 C21           -2.1072     4.1484    -0.6212 C.3     
  22 C22           -1.3059     4.3825    -1.9034 C.3     
  23 C23           -0.6845     5.7416    -2.0972 C.ar    
  24 C24           -0.1035     6.0694    -3.3080 C.ar    
  25 C25            0.4666     7.3158    -3.4864 C.ar    
  26 C26            0.4558     8.2354    -2.4528 C.ar    
  27 C27           -0.1259     7.9068    -1.2412 C.ar    
  28 C28           -0.7007     6.6621    -1.0660 C.ar    
  29 Cl29           1.1721     9.8009    -2.6759 Cl      
  30 H30           -2.1354    -0.2372     0.2629 H       
  31 H31           -2.0874    -2.6573     0.2355 H       
  32 H32           -1.5755    -4.9641    -0.3684 H       
  33 H33           -0.2114    -6.0962    -0.5284 H       
  34 H34           -0.6513    -4.8601     2.2331 H       
  35 H35           -2.3477    -6.6708     2.7602 H       
  36 H36           -2.3521    -7.1824     0.9883 H       
  37 H37            0.1292    -7.6899     1.1287 H       
  38 H38            0.1336    -7.1783     2.9006 H       
  39 H39           -0.1595     1.7869    -1.9742 H       
  40 H40           -1.7141     1.6061    -1.1264 H       
  41 H41            0.0912     3.8953    -0.2061 H       
  42 H42           -2.9831     3.5028    -0.6858 H       
  43 H43           -2.1848     4.9774     0.0822 H       
  44 H44           -1.6547     3.8909    -2.8116 H       
  45 H45           -0.0947     5.3513    -4.1146 H       
  46 H46            0.9208     7.5716    -4.4322 H       
  47 H47           -0.1347     8.6243    -0.4341 H       
  48 H48           -1.1586     6.4071    -0.1217 H       
@<TRIPOS>BOND
   1    1    2 1
   2    1   19 1
   3    2    5 1
   4    2    4 2
   5    3    4 1
   6    3    9 1
   7    3    8 2
   8    4   15 1
   9    5    6 2
  10    5   30 1
  11    6    9 1
  12    6   31 1
  13    7    8 1
  14    7   10 2
  15    9   10 1
  16   10   11 1
  17   11   12 1
  18   11   32 1
  19   11   33 1
  20   12   13 1
  21   12   14 1
  22   12   34 1
  23   13   14 1
  24   13   35 1
  25   13   36 1
  26   14   37 1
  27   14   38 1
  28   15   16 1
  29   15   17 1
  30   15   18 1
  31   19   20 1
  32   19   39 1
  33   19   40 1
  34   20   21 1
  35   20   22 1
  36   20   41 1
  37   21   22 1
  38   21   42 1
  39   21   43 1
  40   22   23 1
  41   22   44 1
  42   23   24 ar
  43   23   28 ar
  44   24   25 ar
  45   24   45 1
  46   25   26 ar
  47   25   46 1
  48   26   27 ar
  49   26   29 1
  50   27   28 ar
  51   27   47 1
  52   28   48 1

#	End of record

