#	Name: ASD00843381
#	Creating user name:	WinNT
#	Creation time:	15. 06. 2019 18:46

#	Modifying user name:	WinNT
#	Modification time:	15. 06. 2019 18:46

#	Program:	/corina/corina34_cracker 3.40 0067  02.08.2006

@<TRIPOS>MOLECULE
ASD00843381
  99  104    0    0    0
SMALL
NO_CHARGES


@<TRIPOS>ATOM
   1 N1             0.7222     1.1474    -0.6596 N.ar    
   2 C2             0.9429    -0.1427    -0.8487 C.ar    
   3 C3             0.8628    -1.0373     0.2110 C.ar    
   4 C4             0.5482    -0.5612     1.4717 C.ar    
   5 C5             0.3237     0.7999     1.6284 C.ar    
   6 C6             0.4203     1.6311     0.5305 C.ar    
   7 C7             1.1146    -2.5067    -0.0093 C.3     
   8 C8             0.8345    -3.2887     1.2563 C.2     
   9 C9             0.2569    -3.0292    -1.1635 C.3     
  10 C10           -1.1907    -2.7017    -0.9020 C.2     
  11 N11           -2.1419    -3.1200    -1.7603 N.am    
  12 O12           -1.4996    -2.0617     0.0807 O.2     
  13 C13           -3.5416    -2.7090    -1.5848 C.3     
  14 C14           -4.4232    -3.9615    -1.5551 C.3     
  15 C15           -4.1651    -4.7920    -2.8144 C.3     
  16 C16           -2.7000    -5.2333    -2.8452 C.3     
  17 C17           -1.7980    -3.9906    -2.8927 C.3     
  18 C18           -5.0691    -6.0264    -2.8050 C.3     
  19 C19           -6.5355    -5.5866    -2.7759 C.3     
  20 C20           -7.4351    -6.8235    -2.8281 C.3     
  21 N21           -7.1570    -7.5812    -4.0549 N.3     
  22 C22           -5.7672    -8.0545    -4.0830 C.3     
  23 C23           -4.8177    -6.8544    -4.0683 C.3     
  24 C24           -8.0972    -8.6995    -4.2075 C.3     
  25 O25           -0.2294    -3.3677     1.8333 O.2     
  26 N26            1.9848    -3.8794     1.6200 N.am    
  27 C27            2.5808    -2.7586    -0.2785 C.ar    
  28 C28            3.0281    -3.5911     0.7447 C.ar    
  29 C29            3.4313    -2.3345    -1.2678 C.ar    
  30 C30            4.7706    -2.7405    -1.2556 C.ar    
  31 C31            5.2273    -3.5774    -0.2302 C.ar    
  32 C32            4.3624    -3.9977     0.7574 C.ar    
  33 F33            6.5184    -3.9749    -0.2095 F       
  34 C34            1.7933    -6.4939     2.4580 C.ar    
  35 C35            0.5201    -6.8305     2.0210 C.ar    
  36 C36            2.7881    -7.4525     2.4954 C.ar    
  37 C37            2.5180    -8.7476     2.0977 C.ar    
  38 C38            1.2460    -9.0893     1.6599 C.ar    
  39 C39            0.2464    -8.1298     1.6218 C.ar    
  40 O40            0.9807   -10.3636     1.2692 O.3     
  41 O41           -0.4578    -5.8876     1.9848 O.3     
  42 C42            2.0582   -11.3000     1.3351 C.3     
  43 C43           -1.7445    -6.3048     1.5240 C.3     
  44 C44           -2.7070    -5.1159     1.5534 C.3     
  45 C45           -7.9426    -9.3090    -5.6023 C.3     
  46 O46            1.2501    -0.5970    -2.0897 O.3     
  47 C47            1.2358     0.3584    -3.1523 C.3     
  48 C48            1.6988    -0.3121    -4.4473 C.3     
  49 F49            2.9621    -0.8806    -4.2522 F       
  50 F50            0.7881    -1.3115    -4.8064 F       
  51 S51            2.1439    -4.8413     2.9586 S.o2    
  52 O52            3.5199    -4.8125     3.3121 O.2     
  53 O53            1.1043    -4.4631     3.8504 O.2     
  54 C54            5.6665    -2.3039    -2.2838 C.1     
  55 N55            6.3772    -1.9575    -3.0995 N.1     
  56 H56            0.4785    -1.2331     2.3143 H       
  57 H57            0.0759     1.2040     2.5988 H       
  58 H58            0.2470     2.6907     0.6471 H       
  59 H59            0.5737    -2.5579    -2.0939 H       
  60 H60            0.3760    -4.1097    -1.2446 H       
  61 H61           -3.6478    -2.1651    -0.6462 H       
  62 H62           -3.8418    -2.0704    -2.4156 H       
  63 H63           -4.1831    -4.5545    -0.6727 H       
  64 H64           -5.4722    -3.6673    -1.5220 H       
  65 H65           -4.3817    -4.1903    -3.6970 H       
  66 H66           -2.4762    -5.8143    -1.9506 H       
  67 H67           -2.5226    -5.8442    -3.7302 H       
  68 H68           -1.9574    -3.4591    -3.8308 H       
  69 H69           -0.7539    -4.2939    -2.8150 H       
  70 H70           -4.8523    -6.6300    -1.9236 H       
  71 H71           -6.7311    -5.0327    -1.8577 H       
  72 H72           -6.7416    -4.9501    -3.6364 H       
  73 H73           -7.2382    -7.4527    -1.9601 H       
  74 H74           -8.4800    -6.5131    -2.8220 H       
  75 H75           -5.5781    -8.6780    -3.2091 H       
  76 H76           -5.6006    -8.6383    -4.9883 H       
  77 H77           -4.9968    -6.2378    -4.9491 H       
  78 H78           -3.7861    -7.2064    -4.0734 H       
  79 H79           -7.8850    -9.4580    -3.4540 H       
  80 H80           -9.1171    -8.3366    -4.0806 H       
  81 H81            3.0683    -1.6894    -2.0541 H       
  82 H82            4.7200    -4.6433     1.5459 H       
  83 H83            3.7785    -7.1885     2.8358 H       
  84 H84            3.2973    -9.4948     2.1272 H       
  85 H85           -0.7441    -8.3938     1.2817 H       
  86 H86            2.8734   -10.9614     0.6958 H       
  87 H87            2.4108   -11.3764     2.3637 H       
  88 H88            1.7122   -12.2765     0.9962 H       
  89 H89           -1.6612    -6.6797     0.5039 H       
  90 H90           -2.1237    -7.0953     2.1717 H       
  91 H91           -3.6885    -5.4341     1.2019 H       
  92 H92           -2.7904    -4.7410     2.5735 H       
  93 H93           -2.3279    -4.3254     0.9057 H       
  94 H94           -8.1548    -8.5505    -6.3558 H       
  95 H95           -6.9227    -9.6719    -5.7292 H       
  96 H96           -8.6402   -10.1388    -5.7156 H       
  97 H97            0.2237     0.7412    -3.2831 H       
  98 H98            1.9072     1.1820    -2.9094 H       
  99 H99            1.7539     0.4319    -5.2420 H       
@<TRIPOS>BOND
   1    1    2 ar
   2    1    6 ar
   3    2    3 ar
   4    2   46 1
   5    3    4 ar
   6    3    7 1
   7    4    5 ar
   8    4   56 1
   9    5    6 ar
  10    5   57 1
  11    6   58 1
  12    7    8 1
  13    7    9 1
  14    7   27 1
  15    8   25 2
  16    8   26 am
  17    9   10 1
  18    9   59 1
  19    9   60 1
  20   10   11 am
  21   10   12 2
  22   11   13 1
  23   11   17 1
  24   13   14 1
  25   13   61 1
  26   13   62 1
  27   14   15 1
  28   14   63 1
  29   14   64 1
  30   15   16 1
  31   15   18 1
  32   15   65 1
  33   16   17 1
  34   16   66 1
  35   16   67 1
  36   17   68 1
  37   17   69 1
  38   18   19 1
  39   18   23 1
  40   18   70 1
  41   19   20 1
  42   19   71 1
  43   19   72 1
  44   20   21 1
  45   20   73 1
  46   20   74 1
  47   21   22 1
  48   21   24 1
  49   22   23 1
  50   22   75 1
  51   22   76 1
  52   23   77 1
  53   23   78 1
  54   24   45 1
  55   24   79 1
  56   24   80 1
  57   26   51 am
  58   26   28 1
  59   27   28 ar
  60   27   29 ar
  61   28   32 ar
  62   29   30 ar
  63   29   81 1
  64   30   31 ar
  65   30   54 1
  66   31   32 ar
  67   31   33 1
  68   32   82 1
  69   34   35 ar
  70   34   36 ar
  71   34   51 1
  72   35   41 1
  73   35   39 ar
  74   36   37 ar
  75   36   83 1
  76   37   38 ar
  77   37   84 1
  78   38   39 ar
  79   38   40 1
  80   39   85 1
  81   40   42 1
  82   41   43 1
  83   42   86 1
  84   42   87 1
  85   42   88 1
  86   43   44 1
  87   43   89 1
  88   43   90 1
  89   44   91 1
  90   44   92 1
  91   44   93 1
  92   45   94 1
  93   45   95 1
  94   45   96 1
  95   46   47 1
  96   47   48 1
  97   47   97 1
  98   47   98 1
  99   48   49 1
 100   48   50 1
 101   48   99 1
 102   51   52 2
 103   51   53 2
 104   54   55 3

#	End of record

