#	Name: ASD01816740
#	Creating user name:	WinNT
#	Creation time:	15. 06. 2019 19:35

#	Modifying user name:	WinNT
#	Modification time:	15. 06. 2019 19:35

#	Program:	/corina/corina34_cracker 3.40 0067  02.08.2006

@<TRIPOS>MOLECULE
ASD01816740
  56   59    0    0    0
SMALL
NO_CHARGES


@<TRIPOS>ATOM
   1 C1            -0.0133     1.3768     0.0044 C.2     
   2 C2             0.0102    -0.0245    -0.0025 C.2     
   3 C3             1.2086    -0.6759    -0.0159 C.2     
   4 C4             2.3997     0.0693    -0.0225 C.2     
   5 N5             2.3472     1.4369    -0.0152 N.am    
   6 C6             1.1434     2.0770    -0.0022 C.2     
   7 C7             3.6326    -0.5972    -0.0362 C.2     
   8 C8             4.7953     0.1181    -0.0428 C.2     
   9 C9             4.7371     1.5233    -0.0357 C.2     
  10 C10            3.4824     2.1643    -0.0217 C.2     
  11 C11            3.6747    -2.1036    -0.0431 C.3     
  12 O12            3.4230     3.3824    -0.0154 O.2     
  13 C13            5.9718     2.3145    -0.0420 C.2     
  14 N14            6.6587     2.5007     1.1025 N.am    
  15 O15            6.3761     2.8032    -1.0808 O.2     
  16 N16            3.7969    -2.5837    -1.4261 N.3     
  17 C17            4.0784    -4.0256    -1.4600 C.3     
  18 C18            4.1194    -4.5006    -2.9144 C.3     
  19 N19            5.1498    -3.7484    -3.6438 N.3     
  20 C20            4.8683    -2.3065    -3.6099 C.3     
  21 C21            4.8274    -1.8315    -2.1555 C.3     
  22 C22            5.2657    -4.2033    -4.9541 C.ar    
  23 C23            6.1909    -3.6176    -5.8132 C.ar    
  24 C24            6.3081    -4.0650    -7.1096 C.ar    
  25 C25            5.4967    -5.1094    -7.5631 C.ar    
  26 C26            4.5686    -5.6958    -6.6973 C.ar    
  27 C27            4.4600    -5.2467    -5.4007 C.ar    
  28 C28            7.9488     3.1944     1.0780 C.3     
  29 C29            6.1153     2.0093     2.3712 C.3     
  30 C30            5.6156    -5.5770    -8.9113 C.1     
  31 N31            5.7099    -5.9481    -9.9809 N.1     
  32 H32           -0.9585     1.8992     0.0105 H       
  33 H33           -0.9134    -0.5842     0.0031 H       
  34 H34            1.2417    -1.7554    -0.0210 H       
  35 H35            1.1134     3.1566     0.0034 H       
  36 H36            5.7488    -0.3892    -0.0530 H       
  37 H37            4.5314    -2.4458     0.5374 H       
  38 H38            2.7576    -2.4947     0.3975 H       
  39 H39            5.0411    -4.2194    -0.9869 H       
  40 H40            3.2951    -4.5618    -0.9243 H       
  41 H41            4.3567    -5.5640    -2.9431 H       
  42 H42            3.1482    -4.3317    -3.3796 H       
  43 H43            5.6517    -1.7703    -4.1456 H       
  44 H44            3.9057    -2.1126    -4.0829 H       
  45 H45            4.5901    -0.7680    -2.1268 H       
  46 H46            5.7986    -2.0004    -1.6903 H       
  47 H47            6.8174    -2.8109    -5.4623 H       
  48 H48            7.0258    -3.6096    -7.7759 H       
  49 H49            3.9400    -6.5024    -7.0445 H       
  50 H50            3.7436    -5.6994    -4.7313 H       
  51 H51            7.7889     4.2640     1.2139 H       
  52 H52            8.5800     2.8163     1.8821 H       
  53 H53            8.4375     3.0190     0.1195 H       
  54 H54            6.3855     0.9613     2.5006 H       
  55 H55            6.5264     2.5947     3.1936 H       
  56 H56            5.0296     2.1063     2.3633 H       
@<TRIPOS>BOND
   1    1    2 1
   2    1    6 2
   3    1   32 1
   4    2    3 2
   5    2   33 1
   6    3    4 1
   7    3   34 1
   8    4    5 1
   9    4    7 2
  10    5    6 1
  11    5   10 am
  12    6   35 1
  13    7    8 1
  14    7   11 1
  15    8    9 2
  16    8   36 1
  17    9   10 1
  18    9   13 1
  19   10   12 2
  20   11   16 1
  21   11   37 1
  22   11   38 1
  23   13   15 2
  24   13   14 am
  25   14   28 1
  26   14   29 1
  27   16   17 1
  28   16   21 1
  29   17   18 1
  30   17   39 1
  31   17   40 1
  32   18   19 1
  33   18   41 1
  34   18   42 1
  35   19   20 1
  36   19   22 1
  37   20   21 1
  38   20   43 1
  39   20   44 1
  40   21   45 1
  41   21   46 1
  42   22   23 ar
  43   22   27 ar
  44   23   24 ar
  45   23   47 1
  46   24   25 ar
  47   24   48 1
  48   25   26 ar
  49   25   30 1
  50   26   27 ar
  51   26   49 1
  52   27   50 1
  53   28   51 1
  54   28   52 1
  55   28   53 1
  56   29   54 1
  57   29   55 1
  58   29   56 1
  59   30   31 3

#	End of record

