#	Name: ASD01231340
#	Creating user name:	WinNT
#	Creation time:	15. 06. 2019 19:15

#	Modifying user name:	WinNT
#	Modification time:	15. 06. 2019 19:15

#	Program:	/corina/corina34_cracker 3.40 0067  02.08.2006

@<TRIPOS>MOLECULE
ASD01231340
  52   54    0    0    0
SMALL
NO_CHARGES


@<TRIPOS>ATOM
   1 C1            -3.5761     1.3658     0.6971 C.3     
   2 C2            -3.0996    -0.0804     0.8458 C.3     
   3 C3            -4.3046    -1.0220     0.7968 C.3     
   4 S4            -1.9613    -0.4843    -0.5077 S.o2    
   5 O5            -2.6538    -0.5189    -1.7480 O.2     
   6 O6            -0.7446     0.2364    -0.3677 O.2     
   7 N7            -1.5360    -2.0610    -0.2333 N.am    
   8 C8            -0.8041    -2.4211     0.9836 C.3     
   9 C9            -1.2842    -3.7895     1.5121 C.3     
  10 C10           -0.2964    -4.7683     0.8427 C.3     
  11 C11            0.9580    -3.9579     0.5952 C.ar    
  12 C12            2.2508    -4.3692     0.3211 C.ar    
  13 C13            3.2538    -3.4321     0.1275 C.ar    
  14 C14            2.9585    -2.0786     0.2094 C.ar    
  15 C15            1.6685    -1.6718     0.4828 C.ar    
  16 C16            0.6663    -2.6088     0.6761 C.ar    
  17 O17            4.5226    -3.8376    -0.1411 O.3     
  18 C18            4.7439    -5.1668    -0.3162 C.ar    
  19 C19            4.2285    -5.8153    -1.4279 C.ar    
  20 C20            4.4564    -7.1730    -1.6035 C.ar    
  21 C21            5.2002    -7.8780    -0.6648 C.ar    
  22 C22            5.7115    -7.2283     0.4416 C.ar    
  23 C23            5.4908    -5.8749     0.6150 C.ar    
  24 S24            4.6195    -7.5901    -4.2123 S.o2    
  25 O25            3.8588    -8.4169    -5.0823 O.2     
  26 O26            4.6317    -6.1778    -4.3686 O.2     
  27 N27            3.9385    -7.8301    -2.7219 N.am    
  28 C28            6.3098    -8.2268    -4.0455 C.3     
  29 H29           -4.2601     1.6085     1.5104 H       
  30 H30           -2.7176     2.0366     0.7320 H       
  31 H31           -4.0900     1.4828    -0.2570 H       
  32 H32           -2.5857    -0.1974     1.7999 H       
  33 H33           -3.9591    -2.0556     0.8144 H       
  34 H34           -4.9447    -0.8381     1.6597 H       
  35 H35           -4.8686    -0.8429    -0.1186 H       
  36 H36           -1.7714    -2.7461    -0.8783 H       
  37 H37           -0.9377    -1.6533     1.7457 H       
  38 H38           -1.2004    -3.8365     2.5979 H       
  39 H39           -2.3064    -3.9914     1.1922 H       
  40 H40           -0.0816    -5.6037     1.5091 H       
  41 H41           -0.7044    -5.1313    -0.1007 H       
  42 H42            2.4788    -5.4230     0.2581 H       
  43 H43            3.7367    -1.3450     0.0589 H       
  44 H44            1.4392    -0.6183     0.5468 H       
  45 H45            3.6505    -5.2651    -2.1556 H       
  46 H46            5.3783    -8.9345    -0.8003 H       
  47 H47            6.2887    -7.7779     1.1704 H       
  48 H48            5.8963    -5.3687     1.4785 H       
  49 H49            3.1800    -8.4270    -2.6257 H       
  50 H50            6.8092    -8.1899    -5.0137 H       
  51 H51            6.8594    -7.6153    -3.3297 H       
  52 H52            6.2767    -9.2576    -3.6927 H       
@<TRIPOS>BOND
   1    1    2 1
   2    1   29 1
   3    1   30 1
   4    1   31 1
   5    2    3 1
   6    2    4 1
   7    2   32 1
   8    3   33 1
   9    3   34 1
  10    3   35 1
  11    4    5 2
  12    4    6 2
  13    4    7 am
  14    7    8 1
  15    7   36 1
  16    8    9 1
  17    8   16 1
  18    8   37 1
  19    9   10 1
  20    9   38 1
  21    9   39 1
  22   10   11 1
  23   10   40 1
  24   10   41 1
  25   11   12 ar
  26   11   16 ar
  27   12   13 ar
  28   12   42 1
  29   13   14 ar
  30   13   17 1
  31   14   15 ar
  32   14   43 1
  33   15   16 ar
  34   15   44 1
  35   17   18 1
  36   18   19 ar
  37   18   23 ar
  38   19   20 ar
  39   19   45 1
  40   20   21 ar
  41   20   27 1
  42   21   22 ar
  43   21   46 1
  44   22   23 ar
  45   22   47 1
  46   23   48 1
  47   24   25 2
  48   24   26 2
  49   24   27 am
  50   24   28 1
  51   27   49 1
  52   28   50 1
  53   28   51 1
  54   28   52 1

#	End of record

