#	Name: ASD03330021
#	Creating user name:	WinNT
#	Creation time:	15. 06. 2019 20:36

#	Modifying user name:	WinNT
#	Modification time:	15. 06. 2019 20:36

#	Program:	/corina/corina34_cracker 3.40 0067  02.08.2006

@<TRIPOS>MOLECULE
ASD03330021
  57   60    0    0    0
SMALL
NO_CHARGES


@<TRIPOS>ATOM
   1 C1            -0.0168     1.3847     0.0097 C.ar    
   2 C2             0.0021    -0.0041     0.0020 C.ar    
   3 C3             1.1962    -0.6898    -0.0131 C.ar    
   4 C4             2.3976     0.0129    -0.0209 C.ar    
   5 C5             2.3758     1.4216    -0.0131 C.ar    
   6 C6             1.1481     2.0957     0.0024 C.ar    
   7 N7             3.7158    -0.3774    -0.0363 N.pl3   
   8 C8             4.5138     0.7503    -0.0384 C.2     
   9 C9             3.7235     1.8554    -0.0245 C.2     
  10 C10            5.9843     0.7540    -0.0534 C.2     
  11 O11            6.5899     1.8090    -0.0534 O.2     
  12 N12            6.6610    -0.4114    -0.0670 N.am    
  13 C13            8.1259    -0.4077    -0.0818 C.3     
  14 C14            8.6395    -1.8489    -0.0954 C.3     
  15 C15           10.1464    -1.8451    -0.1107 C.ar    
  16 C16           10.8484    -1.8503     1.0807 C.ar    
  17 C17           12.2294    -1.8468     1.0703 C.ar    
  18 C18           12.9132    -1.8381    -0.1388 C.ar    
  19 C19           12.2049    -1.8329    -1.3337 C.ar    
  20 C20           10.8240    -1.8421    -1.3161 C.ar    
  21 N21           14.3099    -1.8341    -0.1530 N.3     
  22 C22           14.8222    -1.8249    -1.5291 C.3     
  23 C23           16.3449    -1.6740    -1.5070 C.3     
  24 C24           16.9569    -2.8379    -0.7225 C.3     
  25 C25           16.3706    -2.8539     0.6919 C.3     
  26 C26           14.8471    -2.9706     0.6061 C.3     
  27 C27            4.3422     3.7777    -1.4637 C.3     
  28 C28            4.1966     3.2862    -0.0221 C.3     
  29 H29           -0.9621     1.9069     0.0170 H       
  30 H30           -0.9289    -0.5515     0.0084 H       
  31 H31            1.2004    -1.7698    -0.0186 H       
  32 H32            1.1235     3.1754     0.0080 H       
  33 H33            4.0334    -1.2939    -0.0442 H       
  34 H34            6.1781    -1.2527    -0.0669 H       
  35 H35            8.4789     0.1122    -0.9725 H       
  36 H36            8.4970     0.1019     0.8074 H       
  37 H37            8.2865    -2.3688     0.7952 H       
  38 H38            8.2684    -2.3585    -0.9846 H       
  39 H39           10.3161    -1.8567     2.0204 H       
  40 H40           12.7770    -1.8505     2.0011 H       
  41 H41           12.7336    -1.8262    -2.2755 H       
  42 H42           10.2727    -1.8385    -2.2448 H       
  43 H43           14.5571    -2.7605    -2.0216 H       
  44 H44           14.3824    -0.9901    -2.0748 H       
  45 H45           16.7264    -1.6830    -2.5281 H       
  46 H46           16.6104    -0.7321    -1.0270 H       
  47 H47           16.7244    -3.7774    -1.2239 H       
  48 H48           18.0382    -2.7113    -0.6672 H       
  49 H49           16.7704    -3.7058     1.2419 H       
  50 H50           16.6365    -1.9306     1.2065 H       
  51 H51           14.4255    -2.9679     1.6112 H       
  52 H52           14.5819    -3.9008     0.1036 H       
  53 H53            5.0679     3.1559    -1.9879 H       
  54 H54            3.3780     3.7146    -1.9682 H       
  55 H55            4.6843     4.8126    -1.4619 H       
  56 H56            3.4709     3.9080     0.5022 H       
  57 H57            5.1607     3.3493     0.4824 H       
@<TRIPOS>BOND
   1    1    2 ar
   2    1    6 ar
   3    1   29 1
   4    2    3 ar
   5    2   30 1
   6    3    4 ar
   7    3   31 1
   8    4    5 ar
   9    4    7 1
  10    5    6 ar
  11    5    9 1
  12    6   32 1
  13    7    8 1
  14    7   33 1
  15    8    9 2
  16    8   10 1
  17    9   28 1
  18   10   11 2
  19   10   12 am
  20   12   13 1
  21   12   34 1
  22   13   14 1
  23   13   35 1
  24   13   36 1
  25   14   15 1
  26   14   37 1
  27   14   38 1
  28   15   16 ar
  29   15   20 ar
  30   16   17 ar
  31   16   39 1
  32   17   18 ar
  33   17   40 1
  34   18   19 ar
  35   18   21 1
  36   19   20 ar
  37   19   41 1
  38   20   42 1
  39   21   22 1
  40   21   26 1
  41   22   23 1
  42   22   43 1
  43   22   44 1
  44   23   24 1
  45   23   45 1
  46   23   46 1
  47   24   25 1
  48   24   47 1
  49   24   48 1
  50   25   26 1
  51   25   49 1
  52   25   50 1
  53   26   51 1
  54   26   52 1
  55   27   28 1
  56   27   53 1
  57   27   54 1
  58   27   55 1
  59   28   56 1
  60   28   57 1

#	End of record

