#	Name: ASD02038019
#	Creating user name:	WinNT
#	Creation time:	15. 06. 2019 20:16

#	Modifying user name:	WinNT
#	Modification time:	15. 06. 2019 20:16

#	Program:	/corina/corina34_cracker 3.40 0067  02.08.2006

@<TRIPOS>MOLECULE
ASD02038019
  59   62    0    0    0
SMALL
NO_CHARGES


@<TRIPOS>ATOM
   1 C1            -0.0185     1.4032     0.1015 C.ar    
   2 N2             1.1877     2.1128     0.1032 N.am    
   3 N3             3.5188     2.1288    -0.0195 N.am    
   4 C4             2.3604     1.4486     0.0890 C.2     
   5 C5             6.6539     4.2915     1.8781 C.3     
   6 O6             6.8570     5.6583     1.5140 O.3     
   7 C7             7.6220     6.4122     2.3479 C.ar    
   8 C8             7.8593     7.7473     2.0539 C.ar    
   9 C9             8.1599     5.8477     3.4949 C.ar    
  10 C10            8.9370     6.6126     4.3427 C.ar    
  11 C11            9.1796     7.9468     4.0462 C.ar    
  12 C12            8.6360     8.5126     2.9002 C.ar    
  13 N13            9.9673     8.7254     4.9030 N.am    
  14 C14            9.9132    10.0687     4.8460 C.2     
  15 C15            8.9943    10.7617     3.8763 C.3     
  16 C16            8.9018     9.9608     2.5807 C.3     
  17 O17            2.3731     0.2358     0.1742 O.2     
  18 O18           10.6128    10.7287     5.5850 O.2     
  19 C19            4.8083     1.4314     0.0779 C.3     
  20 C20            5.6602     2.1175     1.1505 C.3     
  21 C21            5.7751     3.6091     0.8279 C.3     
  22 C22            4.3825     4.2437     0.8380 C.3     
  23 C23            3.5162     3.5808    -0.2437 C.3     
  24 C24           -0.1117     0.1913    -0.5695 C.ar    
  25 C25           -1.3037    -0.5067    -0.5693 C.ar    
  26 C26           -2.4034     0.0005     0.0978 C.ar    
  27 C27           -2.3139     1.2076     0.7668 C.ar    
  28 C28           -1.1232     1.9070     0.7759 C.ar    
  29 C29           -3.5152     1.7570     1.4922 C.3     
  30 C30           -3.7025    -0.7634     0.0955 C.3     
  31 F31           -3.5485    -1.9431    -0.6407 F       
  32 F32           -4.0608    -1.0779     1.4108 F       
  33 F33           -4.7040     0.0216    -0.4857 F       
  34 H34            1.1798     3.0827     0.1146 H       
  35 H35            7.6165     3.7830     1.9323 H       
  36 H36            6.1624     4.2436     2.8498 H       
  37 H37            7.4368     8.1876     1.1628 H       
  38 H38            7.9708     4.8097     3.7254 H       
  39 H39            9.3553     6.1730     5.2361 H       
  40 H40           10.5556     8.2936     5.5420 H       
  41 H41            8.0009    10.8472     4.3169 H       
  42 H42            9.3802    11.7580     3.6608 H       
  43 H43            9.8416    10.0435     2.0348 H       
  44 H44            8.0904    10.3537     1.9680 H       
  45 H45            4.6408     0.3905     0.3549 H       
  46 H46            5.3224     1.4780    -0.8821 H       
  47 H47            5.1888     1.9914     2.1252 H       
  48 H48            6.6544     1.6710     1.1661 H       
  49 H49            6.2239     3.7340    -0.1575 H       
  50 H50            3.9232     4.0976     1.8156 H       
  51 H51            4.4674     5.3106     0.6313 H       
  52 H52            3.9264     3.8047    -1.2284 H       
  53 H53            2.4957     3.9579    -0.1764 H       
  54 H54            0.7468    -0.2051    -1.0914 H       
  55 H55           -1.3769    -1.4495    -1.0911 H       
  56 H56           -1.0538     2.8494     1.2989 H       
  57 H57           -3.5156     1.3952     2.5203 H       
  58 H58           -3.4739     2.8462     1.4903 H       
  59 H59           -4.4248     1.4270     0.9905 H       
@<TRIPOS>BOND
   1    1   24 ar
   2    1    2 1
   3    1   28 ar
   4    2    4 am
   5    2   34 1
   6    3    4 am
   7    3   19 1
   8    3   23 1
   9    4   17 2
  10    5    6 1
  11    5   21 1
  12    5   35 1
  13    5   36 1
  14    6    7 1
  15    7    8 ar
  16    7    9 ar
  17    8   12 ar
  18    8   37 1
  19    9   10 ar
  20    9   38 1
  21   10   11 ar
  22   10   39 1
  23   11   12 ar
  24   11   13 1
  25   12   16 1
  26   13   14 am
  27   13   40 1
  28   14   15 1
  29   14   18 2
  30   15   16 1
  31   15   41 1
  32   15   42 1
  33   16   43 1
  34   16   44 1
  35   19   20 1
  36   19   45 1
  37   19   46 1
  38   20   21 1
  39   20   47 1
  40   20   48 1
  41   21   22 1
  42   21   49 1
  43   22   23 1
  44   22   50 1
  45   22   51 1
  46   23   52 1
  47   23   53 1
  48   24   25 ar
  49   24   54 1
  50   25   26 ar
  51   25   55 1
  52   26   27 ar
  53   26   30 1
  54   27   28 ar
  55   27   29 1
  56   28   56 1
  57   29   57 1
  58   29   58 1
  59   29   59 1
  60   30   31 1
  61   30   32 1
  62   30   33 1

#	End of record

