#	Name: ASD03740148
#	Creating user name:	WinNT
#	Creation time:	15. 06. 2019 20:46

#	Modifying user name:	WinNT
#	Modification time:	15. 06. 2019 20:46

#	Program:	/corina/corina34_cracker 3.40 0067  02.08.2006

@<TRIPOS>MOLECULE
ASD03740148
  52   55    0    0    0
SMALL
NO_CHARGES


@<TRIPOS>ATOM
   1 C1            -0.0168     1.3907     0.0097 C.ar    
   2 C2             0.0021    -0.0041     0.0020 C.ar    
   3 C3            -1.1618    -0.7179     0.0093 C.ar    
   4 C4            -2.3868    -0.0558     0.0245 C.ar    
   5 C5            -2.4172     1.3514     0.0329 C.ar    
   6 C6            -1.2183     2.0715     0.0306 C.ar    
   7 N7            -3.6926    -0.4799     0.0344 N.pl3   
   8 N8            -4.5366     0.6351     0.0486 N.2     
   9 C9            -3.8295     1.7321     0.0483 C.2     
  10 O10           -4.3178     3.0008     0.0605 O.3     
  11 C11           -4.1317    -1.8775     0.0297 C.3     
  12 C12           -4.2687    -2.3657     1.4489 C.ar    
  13 C13           -5.4738    -2.2306     2.1127 C.ar    
  14 C14           -5.6000    -2.6782     3.4143 C.ar    
  15 C15           -4.5201    -3.2614     4.0528 C.ar    
  16 C16           -3.3143    -3.3963     3.3879 C.ar    
  17 C17           -3.1909    -2.9535     2.0844 C.ar    
  18 C18           -5.7390     3.1488     0.0746 C.3     
  19 C19           -6.0967     4.6364     0.0869 C.3     
  20 C20           -7.6184     4.7948     0.1020 C.3     
  21 N21           -7.9619     6.2231     0.1138 N.3     
  22 Cl22          -4.6778    -3.8233     5.6878 Cl      
  23 C23           -9.4056     6.4212    -0.1107 C.3     
  24 C24           -7.5964     6.8452     1.4042 C.3     
  25 C25           -8.6803     7.9258     1.6435 C.3     
  26 C26           -9.9487     7.2253     1.0893 C.3     
  27 N27            1.1878     2.1037     0.0020 N.pl3   
  28 H28            0.9480    -0.5252    -0.0102 H       
  29 H29           -1.1324    -1.7974     0.0029 H       
  30 H30           -1.2319     3.1514     0.0373 H       
  31 H31           -5.0946    -1.9541    -0.4754 H       
  32 H32           -3.3965    -2.4876    -0.4950 H       
  33 H33           -6.3166    -1.7750     1.6143 H       
  34 H34           -6.5414    -2.5723     3.9329 H       
  35 H35           -2.4710    -3.8515     3.8858 H       
  36 H36           -2.2497    -3.0587     1.5653 H       
  37 H37           -6.1619     2.6808    -0.8144 H       
  38 H38           -6.1454     2.6700     0.9655 H       
  39 H39           -5.6739     5.1044     0.9758 H       
  40 H40           -5.6904     5.1152    -0.8040 H       
  41 H41           -8.0413     4.3268    -0.7870 H       
  42 H42           -8.0248     4.3160     0.9929 H       
  43 H43           -9.5643     6.9793    -1.0334 H       
  44 H44           -9.9080     5.4555    -0.1678 H       
  45 H45           -7.6173     6.1034     2.2025 H       
  46 H46           -6.6103     7.3050     1.3379 H       
  47 H47           -8.7870     8.1430     2.7063 H       
  48 H48           -8.4581     8.8329     1.0815 H       
  49 H49          -10.6824     7.9610     0.7598 H       
  50 H50          -10.3787     6.5588     1.8369 H       
  51 H51            2.0329     1.6278    -0.0086 H       
  52 H52            1.1773     3.0736     0.0073 H       
@<TRIPOS>BOND
   1    1    2 ar
   2    1   27 1
   3    1    6 ar
   4    2    3 ar
   5    2   28 1
   6    3    4 ar
   7    3   29 1
   8    4    5 ar
   9    4    7 1
  10    5    6 ar
  11    5    9 1
  12    6   30 1
  13    7    8 1
  14    7   11 1
  15    8    9 2
  16    9   10 1
  17   10   18 1
  18   11   12 1
  19   11   31 1
  20   11   32 1
  21   12   13 ar
  22   12   17 ar
  23   13   14 ar
  24   13   33 1
  25   14   15 ar
  26   14   34 1
  27   15   16 ar
  28   15   22 1
  29   16   17 ar
  30   16   35 1
  31   17   36 1
  32   18   19 1
  33   18   37 1
  34   18   38 1
  35   19   20 1
  36   19   39 1
  37   19   40 1
  38   20   21 1
  39   20   41 1
  40   20   42 1
  41   21   23 1
  42   21   24 1
  43   23   26 1
  44   23   43 1
  45   23   44 1
  46   24   25 1
  47   24   45 1
  48   24   46 1
  49   25   26 1
  50   25   47 1
  51   25   48 1
  52   26   49 1
  53   26   50 1
  54   27   51 1
  55   27   52 1

#	End of record

