#	Name: ASD01890498
#	Creating user name:	WinNT
#	Creation time:	15. 06. 2019 19:51

#	Modifying user name:	WinNT
#	Modification time:	15. 06. 2019 19:51

#	Program:	/corina/corina34_cracker 3.40 0067  02.08.2006

@<TRIPOS>MOLECULE
ASD01890498
  48   51    0    0    0
SMALL
NO_CHARGES


@<TRIPOS>ATOM
   1 C1            -0.0172     1.4141     0.0098 C.2     
   2 C2             0.0021    -0.0041     0.0020 C.2     
   3 C3             1.1822    -0.6642    -0.0128 C.2     
   4 O4             1.0289     2.0372     0.0032 O.2     
   5 C5            -1.3201     3.5216     0.0275 C.ar    
   6 C6            -1.3074     2.1358     0.0199 C.ar    
   7 C7            -2.5125     1.4109     0.0212 C.ar    
   8 C8            -3.7095     2.0508     0.0294 C.ar    
   9 C9            -3.7561     3.4569     0.0367 C.ar    
  10 C10           -4.9829     4.1410     0.0447 C.ar    
  11 C11           -4.9967     5.5024     0.0518 C.ar    
  12 C12           -3.8096     6.2326     0.0512 C.ar    
  13 C13           -2.6019     5.6053     0.0431 C.ar    
  14 C14           -2.5477     4.1996     0.0360 C.ar    
  15 C15            2.4175    -2.8070    -0.0361 C.ar    
  16 C16            1.2021    -2.1332    -0.0209 C.ar    
  17 C17           -0.0114    -2.8498    -0.0127 C.ar    
  18 C18           -0.0169    -4.2059    -0.0190 C.ar    
  19 C19            1.1988    -4.9166    -0.0339 C.ar    
  20 C20            1.2137    -6.3195    -0.0400 C.ar    
  21 C21            2.4182    -6.9868    -0.0547 C.ar    
  22 C22            3.6264    -6.2817    -0.0635 C.ar    
  23 C23            3.6412    -4.9226    -0.0573 C.ar    
  24 C24            2.4284    -4.2081    -0.0428 C.ar    
  25 O25            2.4333    -8.3449    -0.0602 O.3     
  26 C26            3.7137    -8.9794    -0.0755 C.3     
  27 O27            4.3082    -8.8836     1.2203 O.3     
  28 C28            3.7412    -9.7702     2.1870 C.3     
  29 H29           -0.9258    -0.5567     0.0079 H       
  30 H30            2.1100    -0.1115    -0.0187 H       
  31 H31           -0.3925     4.0747     0.0309 H       
  32 H32           -2.4851     0.3313     0.0152 H       
  33 H33           -4.6265     1.4803     0.0299 H       
  34 H34           -5.9114     3.5893     0.0449 H       
  35 H35           -5.9421     6.0246     0.0576 H       
  36 H36           -3.8487     7.3119     0.0569 H       
  37 H37           -1.6899     6.1837     0.0420 H       
  38 H38            3.3458    -2.2553    -0.0468 H       
  39 H39           -0.9482    -2.3126    -0.0009 H       
  40 H40           -0.9547    -4.7415    -0.0122 H       
  41 H41            0.2861    -6.8727    -0.0330 H       
  42 H42            4.5600    -6.8245    -0.0750 H       
  43 H43            4.5818    -4.3918    -0.0639 H       
  44 H44            3.5958   -10.0291    -0.3445 H       
  45 H45            4.3546    -8.4867    -0.8067 H       
  46 H46            2.6799    -9.5504     2.3031 H       
  47 H47            3.8645   -10.8000     1.8519 H       
  48 H48            4.2466    -9.6363     3.1434 H       
@<TRIPOS>BOND
   1    1    2 1
   2    1    4 2
   3    1    6 1
   4    2    3 2
   5    2   29 1
   6    3   16 1
   7    3   30 1
   8    5    6 ar
   9    5   14 ar
  10    5   31 1
  11    6    7 ar
  12    7    8 ar
  13    7   32 1
  14    8    9 ar
  15    8   33 1
  16    9   10 ar
  17    9   14 ar
  18   10   11 ar
  19   10   34 1
  20   11   12 ar
  21   11   35 1
  22   12   13 ar
  23   12   36 1
  24   13   14 ar
  25   13   37 1
  26   15   16 ar
  27   15   24 ar
  28   15   38 1
  29   16   17 ar
  30   17   18 ar
  31   17   39 1
  32   18   19 ar
  33   18   40 1
  34   19   20 ar
  35   19   24 ar
  36   20   21 ar
  37   20   41 1
  38   21   22 ar
  39   21   25 1
  40   22   23 ar
  41   22   42 1
  42   23   24 ar
  43   23   43 1
  44   25   26 1
  45   26   27 1
  46   26   44 1
  47   26   45 1
  48   27   28 1
  49   28   46 1
  50   28   47 1
  51   28   48 1

#	End of record

