#	Name: ASD02030099
#	Creating user name:	WinNT
#	Creation time:	15. 06. 2019 20:14

#	Modifying user name:	WinNT
#	Modification time:	15. 06. 2019 20:14

#	Program:	/corina/corina34_cracker 3.40 0067  02.08.2006

@<TRIPOS>MOLECULE
ASD02030099
  68   73    0    0    0
SMALL
NO_CHARGES


@<TRIPOS>ATOM
   1 N1            -0.1340     1.5856    -0.8065 N.am    
   2 C2            -0.0596     0.1211    -0.7095 C.3     
   3 C3            -0.8005    -0.3244     0.5573 C.3     
   4 N4            -2.1208     0.3208     0.5806 N.am    
   5 C5            -2.1951     1.7853     0.4836 C.3     
   6 C6            -1.4539     2.2312    -0.7775 C.3     
   7 C7             0.9885     2.3238    -0.9144 C.2     
   8 C8             2.3126     1.6773    -0.7954 C.2     
   9 N9             3.4735     2.2945    -0.7473 N.2     
  10 N10            2.5426     0.3541    -0.7112 N.2     
  11 C11            3.8376     0.1895    -0.6188 C.2     
  12 N12            4.4067     1.4122    -0.6427 N.pl3   
  13 O13            0.9120     3.5212    -1.1096 O.2     
  14 C14           -3.2432    -0.4174     0.6886 C.2     
  15 C15           -3.1607    -1.8943     0.6817 C.ar    
  16 O16           -4.3233     0.1305     0.7916 O.2     
  17 C17           -1.2833     3.7516    -0.7624 C.3     
  18 C18           -2.2493     1.8126    -2.0157 C.3     
  19 C19            5.7806     1.6779    -0.5669 C.ar    
  20 C20            6.2387     2.9882    -0.6023 C.ar    
  21 C21            7.5933     3.2469    -0.5276 C.ar    
  22 C22            8.4931     2.2026    -0.4180 C.ar    
  23 C23            8.0400     0.8966    -0.3825 C.ar    
  24 C24            6.6861     0.6318    -0.4506 C.ar    
  25 N25           -2.0306    -2.4870     1.0796 N.ar    
  26 C26           -1.8858    -3.7927     1.0997 C.ar    
  27 C27           -2.9485    -4.6301     0.6904 C.ar    
  28 C28           -4.1620    -4.0339     0.2621 C.ar    
  29 C29           -4.2561    -2.6301     0.2691 C.ar    
  30 C30           -2.8341    -6.0258     0.6966 C.ar    
  31 C31           -3.8887    -6.7896     0.2917 C.ar    
  32 C32           -5.0800    -6.2043    -0.1291 C.ar    
  33 C33           -5.2270    -4.8492    -0.1473 C.ar    
  34 O34           -0.7159    -4.3374     1.5129 O.3     
  35 C35            0.3157    -3.4327     1.9120 C.3     
  36 C36            1.5511    -4.2259     2.3428 C.3     
  37 C37            2.8113    -3.4337     2.6966 C.3     
  38 C38            1.9944    -4.1054     3.8022 C.3     
  39 H39           -0.5291    -0.3279    -1.5848 H       
  40 H40            0.9837    -0.1892    -0.6513 H       
  41 H41           -0.9228    -1.4075     0.5478 H       
  42 H42           -0.2318    -0.0258     1.4379 H       
  43 H43           -3.2384     2.0956     0.4255 H       
  44 H44           -1.7257     2.2343     1.3590 H       
  45 H45            4.3564    -0.7541    -0.5353 H       
  46 H46           -0.4866     4.0209    -0.0689 H       
  47 H47           -1.0263     4.0984    -1.7633 H       
  48 H48           -2.2153     4.2187    -0.4442 H       
  49 H49           -3.2338     2.2797    -1.9901 H       
  50 H50           -1.7191     2.1314    -2.9131 H       
  51 H51           -2.3616     0.7284    -2.0259 H       
  52 H52            5.5365     3.8042    -0.6886 H       
  53 H53            7.9503     4.2658    -0.5550 H       
  54 H54            9.5520     2.4073    -0.3604 H       
  55 H55            8.7451     0.0831    -0.2968 H       
  56 H56            6.3328    -0.3884    -0.4225 H       
  57 H57           -5.1627    -2.1370    -0.0495 H       
  58 H58           -1.9162    -6.4944     1.0196 H       
  59 H59           -3.7984    -7.8658     0.2972 H       
  60 H60           -5.8995    -6.8329    -0.4450 H       
  61 H61           -6.1558    -4.4069    -0.4763 H       
  62 H62            0.5741    -2.7842     1.0749 H       
  63 H63           -0.0359    -2.8261     2.7466 H       
  64 H64            1.6840    -5.1911     1.8542 H       
  65 H65            3.7733    -3.8779     2.4410 H       
  66 H66            2.7603    -2.3474     2.6224 H       
  67 H67            1.4060    -3.4610     4.4554 H       
  68 H68            2.4190    -4.9915     4.2741 H       
@<TRIPOS>BOND
   1    1    2 1
   2    1    7 am
   3    1    6 1
   4    2    3 1
   5    2   39 1
   6    2   40 1
   7    3    4 1
   8    3   41 1
   9    3   42 1
  10    4    5 1
  11    4   14 am
  12    5    6 1
  13    5   43 1
  14    5   44 1
  15    6   17 1
  16    6   18 1
  17    7    8 1
  18    7   13 2
  19    8    9 2
  20    8   10 1
  21    9   12 1
  22   10   11 2
  23   11   12 1
  24   11   45 1
  25   12   19 1
  26   14   15 1
  27   14   16 2
  28   15   25 ar
  29   15   29 ar
  30   17   46 1
  31   17   47 1
  32   17   48 1
  33   18   49 1
  34   18   50 1
  35   18   51 1
  36   19   20 ar
  37   19   24 ar
  38   20   21 ar
  39   20   52 1
  40   21   22 ar
  41   21   53 1
  42   22   23 ar
  43   22   54 1
  44   23   24 ar
  45   23   55 1
  46   24   56 1
  47   25   26 ar
  48   26   27 ar
  49   26   34 1
  50   27   28 ar
  51   27   30 ar
  52   28   29 ar
  53   28   33 ar
  54   29   57 1
  55   30   31 ar
  56   30   58 1
  57   31   32 ar
  58   31   59 1
  59   32   33 ar
  60   32   60 1
  61   33   61 1
  62   34   35 1
  63   35   36 1
  64   35   62 1
  65   35   63 1
  66   36   37 1
  67   36   38 1
  68   36   64 1
  69   37   38 1
  70   37   65 1
  71   37   66 1
  72   38   67 1
  73   38   68 1

#	End of record

