#	Name: ASD02198386
#	Creating user name:	WinNT
#	Creation time:	15. 06. 2019 20:19

#	Modifying user name:	WinNT
#	Modification time:	15. 06. 2019 20:19

#	Program:	/corina/corina34_cracker 3.40 0067  02.08.2006

@<TRIPOS>MOLECULE
ASD02198386
  33   35    0    0    0
SMALL
NO_CHARGES


@<TRIPOS>ATOM
   1 C1            -0.1418     1.5996     0.3890 C.2     
   2 C2            -0.2010     0.2660     0.3739 C.2     
   3 C3             1.1336     2.1275     0.2781 C.2     
   4 C4             2.1087     1.2240     0.1731 C.2     
   5 S5             1.4212    -0.3943     0.2122 S.3     
   6 S6             3.8243     1.5950     0.0192 S.o2    
   7 N7             4.4483     1.6733     1.5511 N.am    
   8 C8             4.3770     0.5625     2.3904 C.ar    
   9 C9             4.1648     0.7331     3.7767 C.ar    
  10 C10            4.0951    -0.4091     4.6114 C.ar    
  11 C11            4.2375    -1.6896     4.0549 C.ar    
  12 C12            4.4440    -1.8273     2.7006 C.ar    
  13 C13            4.5075    -0.7057     1.8713 C.ar    
  14 N14            4.0304     1.9524     4.3055 N.ar    
  15 C15            3.8335     2.1210     5.5904 C.ar    
  16 C16            3.7547     1.0412     6.4675 C.ar    
  17 C17            3.8833    -0.2327     5.9926 C.ar    
  18 O18            4.4248     0.4664    -0.6014 O.2     
  19 O19            3.9043     2.9095    -0.5144 O.2     
  20 Cl20          -1.6562    -0.6728     0.4957 Cl      
  21 O21            4.5815    -3.0684     2.1645 O.3     
  22 C22            4.5007    -4.1761     3.0636 C.3     
  23 H23           -1.0218     2.2195     0.4765 H       
  24 H24            1.3240     3.1906     0.2765 H       
  25 H25            4.8633     2.4921     1.8645 H       
  26 H26            4.1856    -2.5639     4.6868 H       
  27 H27            4.6697    -0.8343     0.8113 H       
  28 H28            3.7301     3.1231     5.9795 H       
  29 H29            3.5917     1.2115     7.5214 H       
  30 H30            3.8250    -1.0814     6.6579 H       
  31 H31            4.6265    -5.1052     2.5076 H       
  32 H32            5.2865    -4.0927     3.8143 H       
  33 H33            3.5276    -4.1754     3.5546 H       
@<TRIPOS>BOND
   1    1    2 2
   2    1    3 1
   3    1   23 1
   4    2   20 1
   5    2    5 1
   6    3    4 2
   7    3   24 1
   8    4    5 1
   9    4    6 1
  10    6    7 am
  11    6   18 2
  12    6   19 2
  13    7    8 1
  14    7   25 1
  15    8    9 ar
  16    8   13 ar
  17    9   10 ar
  18    9   14 ar
  19   10   11 ar
  20   10   17 ar
  21   11   12 ar
  22   11   26 1
  23   12   13 ar
  24   12   21 1
  25   13   27 1
  26   14   15 ar
  27   15   16 ar
  28   15   28 1
  29   16   17 ar
  30   16   29 1
  31   17   30 1
  32   21   22 1
  33   22   31 1
  34   22   32 1
  35   22   33 1

#	End of record

