#	Name: ASD03092734
#	Creating user name:	WinNT
#	Creation time:	15. 06. 2019 20:33

#	Modifying user name:	WinNT
#	Modification time:	15. 06. 2019 20:33

#	Program:	/corina/corina34_cracker 3.40 0067  02.08.2006

@<TRIPOS>MOLECULE
ASD03092734
  51   53    0    0    0
SMALL
NO_CHARGES


@<TRIPOS>ATOM
   1 C1             0.0004     1.2013     0.0050 C.2     
   2 O2            -0.6974     1.1936     1.0011 O.2     
   3 C3             2.4991     1.2918     0.1018 C.ar    
   4 C4             1.2644     1.9589    -0.0033 C.ar    
   5 C5             1.2572     3.3527    -0.1163 C.ar    
   6 C6             2.4810     4.0211    -0.1196 C.ar    
   7 C7             3.6607     3.2846    -0.0111 C.ar    
   8 N8             3.6353     1.9719     0.0943 N.ar    
   9 N9             2.5257    -0.0848     0.2199 N.pl3   
  10 C10            3.8068    -0.7955     0.2171 C.3     
  11 C11            3.5566    -2.2981     0.3601 C.3     
  12 C12            4.8945    -3.0404     0.3571 C.3     
  13 C13            2.5280     5.4994    -0.2376 C.ar    
  14 C14            3.7546     6.1611    -0.2402 C.ar    
  15 C15            3.7950     7.5353    -0.3500 C.ar    
  16 C16            2.6155     8.2594    -0.4578 C.ar    
  17 C17            1.3923     7.6032    -0.4551 C.ar    
  18 C18            1.3457     6.2286    -0.3518 C.ar    
  19 O19            2.6585     9.6133    -0.5659 O.3     
  20 C20            1.4075    10.2956    -0.6733 C.3     
  21 C21            1.6557    11.8012    -0.7851 C.3     
  22 C22           -0.4160     0.4466    -1.1940 C.ar    
  23 C23           -1.5542    -0.3649    -1.1530 C.ar    
  24 C24           -1.9375    -1.0670    -2.2777 C.ar    
  25 C25           -1.1973    -0.9690    -3.4441 C.ar    
  26 C26           -0.0688    -0.1664    -3.4905 C.ar    
  27 C27            0.3220     0.5447    -2.3761 C.ar    
  28 Cl28          -1.6853    -1.8561    -4.8543 Cl      
  29 Cl29          -2.4820    -0.4894     0.3090 Cl      
  30 H30            0.3282     3.8972    -0.1992 H       
  31 H31            4.6102     3.7992    -0.0133 H       
  32 H32            1.6963    -0.5804     0.3048 H       
  33 H33            4.3278    -0.6016    -0.7205 H       
  34 H34            4.4171    -0.4478     1.0506 H       
  35 H35            3.0356    -2.4921     1.2977 H       
  36 H36            2.9463    -2.6458    -0.4734 H       
  37 H37            5.5048    -2.6927     1.1906 H       
  38 H38            4.7163    -4.1109     0.4590 H       
  39 H39            5.4155    -2.8465    -0.5804 H       
  40 H40            4.6725     5.5983    -0.1560 H       
  41 H41            4.7452     8.0486    -0.3517 H       
  42 H42            0.4763     8.1692    -0.5387 H       
  43 H43            0.3940     5.7182    -0.3545 H       
  44 H44            0.8789     9.9476    -1.5607 H       
  45 H45            0.8051    10.0914     0.2119 H       
  46 H46            0.7014    12.3216    -0.8670 H       
  47 H47            2.1843    12.1492     0.1024 H       
  48 H48            2.2581    12.0054    -1.6703 H       
  49 H49           -2.8162    -1.6943    -2.2481 H       
  50 H50            0.5038    -0.0946    -4.4034 H       
  51 H51            1.1996     1.1729    -2.4155 H       
@<TRIPOS>BOND
   1    1    2 2
   2    1    4 1
   3    1   22 1
   4    3    4 ar
   5    3    8 ar
   6    3    9 1
   7    4    5 ar
   8    5    6 ar
   9    5   30 1
  10    6    7 ar
  11    6   13 1
  12    7    8 ar
  13    7   31 1
  14    9   10 1
  15    9   32 1
  16   10   11 1
  17   10   33 1
  18   10   34 1
  19   11   12 1
  20   11   35 1
  21   11   36 1
  22   12   37 1
  23   12   38 1
  24   12   39 1
  25   13   14 ar
  26   13   18 ar
  27   14   15 ar
  28   14   40 1
  29   15   16 ar
  30   15   41 1
  31   16   17 ar
  32   16   19 1
  33   17   18 ar
  34   17   42 1
  35   18   43 1
  36   19   20 1
  37   20   21 1
  38   20   44 1
  39   20   45 1
  40   21   46 1
  41   21   47 1
  42   21   48 1
  43   22   23 ar
  44   22   27 ar
  45   23   24 ar
  46   23   29 1
  47   24   25 ar
  48   24   49 1
  49   25   26 ar
  50   25   28 1
  51   26   27 ar
  52   26   50 1
  53   27   51 1

#	End of record

