#	Name: ASD01884412
#	Creating user name:	WinNT
#	Creation time:	15. 06. 2019 19:48

#	Modifying user name:	WinNT
#	Modification time:	15. 06. 2019 19:48

#	Program:	/corina/corina34_cracker 3.40 0067  02.08.2006

@<TRIPOS>MOLECULE
ASD01884412
  39   41    0    0    0
SMALL
NO_CHARGES


@<TRIPOS>ATOM
   1 C1            -0.0164     1.3576     0.0095 C.2     
   2 C2             0.0021    -0.0041     0.0020 C.2     
   3 C3             1.2440    -0.6751    -0.0134 C.2     
   4 C4             2.4024     0.0465    -0.0206 C.2     
   5 N5             2.3700     1.4024    -0.0126 N.am    
   6 C6             1.1986     2.0652     0.0017 C.2     
   7 C7             1.2897    -2.1583    -0.0214 C.ar    
   8 C8             3.6266     2.1554    -0.0201 C.3     
   9 O9             1.1911     3.2856     0.0092 O.2     
  10 C10            4.0442     2.4218    -1.4434 C.ar    
  11 C11            3.6203     3.5708    -2.0845 C.ar    
  12 C12            4.0033     3.8151    -3.3901 C.ar    
  13 C13            4.8105     2.9106    -4.0544 C.ar    
  14 C14            5.2351     1.7620    -3.4129 C.ar    
  15 C15            4.8556     1.5199    -2.1059 C.ar    
  16 C16            0.8124    -2.8774     1.0728 C.ar    
  17 C17            1.8048    -2.8351    -1.1254 C.ar    
  18 C18            1.8461    -4.2138    -1.1298 C.ar    
  19 C19            1.3747    -4.9272    -0.0363 C.ar    
  20 C20            0.8563    -4.2560     1.0626 C.ar    
  21 O21            1.4158    -6.2855    -0.0439 O.3     
  22 C22            0.9144    -6.9563     1.1140 C.3     
  23 H23           -0.9563     1.8895     0.0169 H       
  24 H24           -0.9217    -0.5635     0.0082 H       
  25 H25            3.3528    -0.4664    -0.0325 H       
  26 H26            3.4856     3.1027     0.5005 H       
  27 H27            4.4005     1.5759     0.4832 H       
  28 H28            2.9897     4.2774    -1.5655 H       
  29 H29            3.6716     4.7124    -3.8912 H       
  30 H30            5.1091     3.1011    -5.0746 H       
  31 H31            5.8654     1.0552    -3.9320 H       
  32 H32            5.1873     0.6225    -1.6047 H       
  33 H33            0.4089    -2.3558     1.9281 H       
  34 H34            2.1710    -2.2806    -1.9768 H       
  35 H35            2.2451    -4.7388    -1.9851 H       
  36 H36            0.4903    -4.8137     1.9120 H       
  37 H37            1.4892    -6.6507     1.9883 H       
  38 H38           -0.1340    -6.6958     1.2593 H       
  39 H39            1.0055    -8.0339     0.9777 H       
@<TRIPOS>BOND
   1    1    2 2
   2    1    6 1
   3    1   23 1
   4    2    3 1
   5    2   24 1
   6    3    4 2
   7    3    7 1
   8    4    5 1
   9    4   25 1
  10    5    6 am
  11    5    8 1
  12    6    9 2
  13    7   16 ar
  14    7   17 ar
  15    8   10 1
  16    8   26 1
  17    8   27 1
  18   10   11 ar
  19   10   15 ar
  20   11   12 ar
  21   11   28 1
  22   12   13 ar
  23   12   29 1
  24   13   14 ar
  25   13   30 1
  26   14   15 ar
  27   14   31 1
  28   15   32 1
  29   16   20 ar
  30   16   33 1
  31   17   18 ar
  32   17   34 1
  33   18   19 ar
  34   18   35 1
  35   19   20 ar
  36   19   21 1
  37   20   36 1
  38   21   22 1
  39   22   37 1
  40   22   38 1
  41   22   39 1

#	End of record

