#	Name: ASD03170008
#	Creating user name:	WinNT
#	Creation time:	15. 06. 2019 20:33

#	Modifying user name:	WinNT
#	Modification time:	15. 06. 2019 20:33

#	Program:	/corina/corina34_cracker 3.40 0067  02.08.2006

@<TRIPOS>MOLECULE
ASD03170008
  60   63    0    0    0
SMALL
NO_CHARGES


@<TRIPOS>ATOM
   1 C1             0.2813     1.1880    -0.5920 C.3     
   2 O2             0.2127    -0.2613    -0.5355 O.3     
   3 C3            -0.9758    -0.8035    -0.2269 C.2     
   4 O4            -1.9273    -0.0907    -0.0112 O.2     
   5 C5            -1.1236    -2.3024    -0.1495 C.3     
   6 C6            -0.5980    -2.9202    -1.4433 C.3     
   7 C7            -0.7897    -4.4351    -1.4535 C.3     
   8 O8            -0.3465    -4.9737    -2.7274 O.3     
   9 C9             0.9410    -5.3421    -2.8184 C.2     
  10 O10            1.6735    -5.2187    -1.8655 O.2     
  11 C11            1.4729    -5.9096    -4.1092 C.3     
  12 C12           -2.2731    -4.7723    -1.2509 C.3     
  13 C13           -2.7114    -4.1782     0.0859 C.3     
  14 C14           -2.6077    -2.6600     0.0557 C.3     
  15 C15           -3.4008    -2.0316    -1.0898 C.3     
  16 C16           -3.0817    -2.0527     1.3769 C.3     
  17 C17           -4.4800    -2.5643     1.7366 C.3     
  18 C18           -4.4268    -4.0767     1.8895 C.3     
  19 C19           -4.0368    -4.7331     0.5601 C.3     
  20 C20           -5.1450    -4.5588    -0.4738 C.3     
  21 C21           -3.9032    -6.2358     0.8668 C.3     
  22 C22           -5.2511    -6.8088     1.2917 C.3     
  23 O23           -6.0583    -5.9142     2.0706 O.3     
  24 C24           -5.7528    -4.6422     2.3269 C.2     
  25 O25           -6.5439    -3.9276     2.9197 O.2     
  26 C26           -5.0101    -8.0694     2.0815 C.2     
  27 C27           -4.7484    -8.1526     3.3983 C.2     
  28 O28           -4.5959    -9.4477     3.7196 O.3     
  29 C29           -4.7569   -10.2036     2.6212 C.2     
  30 C30           -5.0216    -9.3919     1.5817 C.2     
  31 H31            1.2950     1.4939    -0.8509 H       
  32 H32           -0.4132     1.5554    -1.3474 H       
  33 H33            0.0138     1.6025     0.3799 H       
  34 H34           -0.5506    -2.6798     0.6988 H       
  35 H35           -1.0887    -2.4770    -2.3079 H       
  36 H36            0.4774    -2.7043    -1.5206 H       
  37 H37           -0.2087    -4.8844    -0.6476 H       
  38 H38            0.6723    -5.9442    -4.8481 H       
  39 H39            2.2809    -5.2779    -4.4782 H       
  40 H40            1.8502    -6.9173    -3.9349 H       
  41 H41           -2.8530    -4.3779    -2.0776 H       
  42 H42           -2.3816    -5.8593    -1.2221 H       
  43 H43           -1.9479    -4.5231     0.8297 H       
  44 H44           -2.9771    -2.3497    -2.0424 H       
  45 H45           -4.4410    -2.3515    -1.0299 H       
  46 H46           -3.3498    -0.9454    -1.0140 H       
  47 H47           -2.3836    -2.3227     2.1700 H       
  48 H48           -3.1247    -0.9655     1.2892 H       
  49 H49           -4.7828    -2.1162     2.6912 H       
  50 H50           -5.2007    -2.2719     0.9786 H       
  51 H51           -3.6695    -4.3301     2.6420 H       
  52 H52           -5.4302    -3.5081    -0.5271 H       
  53 H53           -4.7868    -4.8880    -1.4493 H       
  54 H54           -6.0096    -5.1558    -0.1838 H       
  55 H55           -3.5526    -6.7478    -0.0308 H       
  56 H56           -3.1719    -6.3682     1.6651 H       
  57 H57           -5.8086    -7.1021     0.3882 H       
  58 H58           -4.6730    -7.3193     4.0812 H       
  59 H59           -4.6894   -11.2807     2.5803 H       
  60 H60           -5.2009    -9.6923     0.5600 H       
@<TRIPOS>BOND
   1    1    2 1
   2    1   31 1
   3    1   32 1
   4    1   33 1
   5    2    3 1
   6    3    4 2
   7    3    5 1
   8    5    6 1
   9    5   14 1
  10    5   34 1
  11    6    7 1
  12    6   35 1
  13    6   36 1
  14    7    8 1
  15    7   12 1
  16    7   37 1
  17    8    9 1
  18    9   10 2
  19    9   11 1
  20   11   38 1
  21   11   39 1
  22   11   40 1
  23   12   13 1
  24   12   41 1
  25   12   42 1
  26   13   14 1
  27   13   19 1
  28   13   43 1
  29   14   15 1
  30   14   16 1
  31   15   44 1
  32   15   45 1
  33   15   46 1
  34   16   17 1
  35   16   47 1
  36   16   48 1
  37   17   18 1
  38   17   49 1
  39   17   50 1
  40   18   19 1
  41   18   24 1
  42   18   51 1
  43   19   20 1
  44   19   21 1
  45   20   52 1
  46   20   53 1
  47   20   54 1
  48   21   22 1
  49   21   55 1
  50   21   56 1
  51   22   23 1
  52   22   26 1
  53   22   57 1
  54   23   24 1
  55   24   25 2
  56   26   27 2
  57   26   30 1
  58   27   28 1
  59   27   58 1
  60   28   29 1
  61   29   30 2
  62   29   59 1
  63   30   60 1

#	End of record

