#	Name: ASD02218001
#	Creating user name:	WinNT
#	Creation time:	15. 06. 2019 20:20

#	Modifying user name:	WinNT
#	Modification time:	15. 06. 2019 20:20

#	Program:	/corina/corina34_cracker 3.40 0067  02.08.2006

@<TRIPOS>MOLECULE
ASD02218001
  17   16    0    0    0
SMALL
NO_CHARGES


@<TRIPOS>ATOM
   1 C1             0.7717     0.1637     1.1423 C.2     
   2 C2            -0.0750     0.0785    -0.0488 C.2     
   3 C3             0.2618     0.7464    -1.1583 C.2     
   4 O4             1.7812     0.8415     1.1235 O.2     
   5 O5             0.4292    -0.5050     2.2623 O.3     
   6 C6            -1.3261    -0.7614    -0.0255 C.3     
   7 P7            -0.9037    -2.4916    -0.4143 P.3     
   8 O8            -0.2329    -2.5516    -1.7322 O.2     
   9 O9             0.0844    -3.0701     0.7176 O.3     
  10 O10           -2.2484    -3.3760    -0.4557 O.3     
  11 Cl11          -0.6510     0.5214    -2.6177 Cl      
  12 Cl12           1.6116     1.8378    -1.1383 Cl      
  13 H13            1.0195    -0.4181     3.0233 H       
  14 H14           -1.7787    -0.7116     0.9648 H       
  15 H15           -2.0308    -0.3841    -0.7665 H       
  16 H16           -0.2905    -3.0613     1.6089 H       
  17 H17           -2.0989    -4.3098    -0.6576 H       
@<TRIPOS>BOND
   1    1    2 1
   2    1    4 2
   3    1    5 1
   4    2    3 2
   5    2    6 1
   6    3   11 1
   7    3   12 1
   8    5   13 1
   9    6    7 1
  10    6   14 1
  11    6   15 1
  12    7    8 2
  13    7    9 1
  14    7   10 1
  15    9   16 1
  16   10   17 1

#	End of record

