#	Name: ASD01900637
#	Creating user name:	WinNT
#	Creation time:	15. 06. 2019 19:52

#	Modifying user name:	WinNT
#	Modification time:	15. 06. 2019 19:52

#	Program:	/corina/corina34_cracker 3.40 0067  02.08.2006

@<TRIPOS>MOLECULE
ASD01900637
  35   38    0    0    0
SMALL
NO_CHARGES


@<TRIPOS>ATOM
   1 C1            -0.0167     1.3807     0.0096 C.ar    
   2 C2             0.0021    -0.0041     0.0020 C.ar    
   3 C3             1.1985    -0.6925    -0.0152 C.ar    
   4 C4             2.3999     0.0037    -0.0253 C.ar    
   5 C5             2.3760     1.4050    -0.0132 C.ar    
   6 O6             3.5769    -0.6572    -0.0540 O.3     
   7 C7             4.7391    -0.0447     0.2306 C.2     
   8 C8             4.8690     1.3029     0.2630 C.2     
   9 C9             3.6750     2.1247    -0.0107 C.2     
  10 N10            3.7558     3.4131    -0.2387 N.2     
  11 C11            5.9238    -0.8762     0.5205 C.ar    
  12 N12            7.0863    -0.2822     0.8051 N.ar    
  13 C13            8.1768    -0.9560     1.0724 C.ar    
  14 C14            8.1601    -2.3623     1.0680 C.ar    
  15 C15            6.9435    -3.0315     0.7702 C.ar    
  16 C16            5.8059    -2.2579     0.4973 C.ar    
  17 C17            9.3094    -3.1157     1.3487 C.ar    
  18 C18            9.2485    -4.4770     1.3332 C.ar    
  19 C19            8.0610    -5.1423     1.0421 C.ar    
  20 C20            6.9098    -4.4394     0.7613 C.ar    
  21 O21            5.0171     4.0565    -0.2266 O.3     
  22 C22            1.1683     2.0900     0.0021 C.ar    
  23 O23            5.7558    -5.0967     0.4788 O.3     
  24 H24           -0.9598     1.9069     0.0170 H       
  25 H25           -0.9291    -0.5511     0.0100 H       
  26 H26            1.2000    -1.7725    -0.0205 H       
  27 H27            5.8207     1.7634     0.4837 H       
  28 H28            9.0929    -0.4297     1.2966 H       
  29 H29            4.8613    -2.7276     0.2663 H       
  30 H30           10.2405    -2.6181     1.5762 H       
  31 H31           10.1379    -5.0500     1.5504 H       
  32 H32            8.0418    -6.2221     1.0362 H       
  33 H33            4.9760     5.0061    -0.4050 H       
  34 H34            1.1557     3.1699     0.0077 H       
  35 H35            5.2118    -5.2878     1.2552 H       
@<TRIPOS>BOND
   1    1    2 ar
   2    1   22 ar
   3    1   24 1
   4    2    3 ar
   5    2   25 1
   6    3    4 ar
   7    3   26 1
   8    4    5 ar
   9    4    6 1
  10    5   22 ar
  11    5    9 1
  12    6    7 1
  13    7    8 2
  14    7   11 1
  15    8    9 1
  16    8   27 1
  17    9   10 2
  18   10   21 1
  19   11   12 ar
  20   11   16 ar
  21   12   13 ar
  22   13   14 ar
  23   13   28 1
  24   14   15 ar
  25   14   17 ar
  26   15   16 ar
  27   15   20 ar
  28   16   29 1
  29   17   18 ar
  30   17   30 1
  31   18   19 ar
  32   18   31 1
  33   19   20 ar
  34   19   32 1
  35   20   23 1
  36   21   33 1
  37   22   34 1
  38   23   35 1

#	End of record

