#	Name: ASD01885331
#	Creating user name:	WinNT
#	Creation time:	15. 06. 2019 19:49

#	Modifying user name:	WinNT
#	Modification time:	15. 06. 2019 19:49

#	Program:	/corina/corina34_cracker 3.40 0067  02.08.2006

@<TRIPOS>MOLECULE
ASD01885331
  53   56    0    0    0
SMALL
NO_CHARGES


@<TRIPOS>ATOM
   1 C1             0.4785     1.1513    -0.5252 C.ar    
   2 C2             0.3376    -0.1950    -0.6634 C.ar    
   3 C3             1.4067    -0.9915    -1.0678 C.ar    
   4 C4             2.6249    -0.4426    -1.3365 C.ar    
   5 C5             2.8067     0.9400    -1.2049 C.ar    
   6 C6             1.7217     1.7547    -0.7936 C.ar    
   7 C7             4.0593     1.5465    -1.4760 C.ar    
   8 C8             4.1615     2.9228    -1.3234 C.ar    
   9 C9             3.0428     3.6557    -0.9135 C.ar    
  10 N10            1.8850     3.0722    -0.6660 N.ar    
  11 C11            5.2221     0.7376    -1.9077 C.2     
  12 C12            3.1605     5.1252    -0.7531 C.2     
  13 O13            4.2191     5.6778    -0.9770 O.2     
  14 N14            2.0932     5.8477    -0.3590 N.am    
  15 C15           -0.9958    -0.8347    -0.3740 C.3     
  16 N16           -1.7457    -0.9921    -1.6273 N.3     
  17 C17           -2.0909     0.3160    -2.2026 C.3     
  18 C18           -2.8172     0.1063    -3.5339 C.3     
  19 O19           -3.9703    -0.7117    -3.3185 O.3     
  20 C20           -3.6706    -1.9935    -2.7595 C.3     
  21 C21           -2.9530    -1.8052    -1.4203 C.3     
  22 C22            6.0268     0.9885    -2.9839 C.2     
  23 N23            6.9621     0.0205    -3.0270 N.pl3   
  24 N24            6.7390    -0.8540    -1.9568 N.2     
  25 C25            5.7056    -0.4292    -1.2804 C.2     
  26 C26            8.0297    -0.0974    -4.0232 C.3     
  27 C27           -3.0036     1.0741    -1.2366 C.3     
  28 C28           -2.5583    -3.1712    -0.8556 C.3     
  29 H29           -0.3615     1.7552    -0.2150 H       
  30 H30            1.2684    -2.0578    -1.1695 H       
  31 H31            3.4461    -1.0707    -1.6489 H       
  32 H32            5.0980     3.4237    -1.5195 H       
  33 H33            1.2481     5.4064    -0.1803 H       
  34 H34            2.1702     6.8089    -0.2541 H       
  35 H35           -0.8385    -1.8128     0.0806 H       
  36 H36           -1.5611    -0.2025     0.3107 H       
  37 H37           -1.1805     0.8911    -2.3712 H       
  38 H38           -3.1255     1.0713    -3.9362 H       
  39 H39           -2.1483    -0.3861    -4.2398 H       
  40 H40           -4.5961    -2.5473    -2.6017 H       
  41 H41           -3.0266    -2.5470    -3.4429 H       
  42 H42           -3.6170    -1.2990    -0.7196 H       
  43 H43            5.9299     1.8131    -3.6745 H       
  44 H44            5.2918    -0.8924    -0.3969 H       
  45 H45            8.9110     0.4427    -3.6771 H       
  46 H46            8.2802    -1.1487    -4.1647 H       
  47 H47            7.6923     0.3262    -4.9692 H       
  48 H48           -2.4874     1.2197    -0.2876 H       
  49 H49           -3.2592     2.0439    -1.6637 H       
  50 H50           -3.9144     0.4989    -1.0702 H       
  51 H51           -2.1525    -3.0459     0.1483 H       
  52 H52           -3.4369    -3.8150    -0.8146 H       
  53 H53           -1.8043    -3.6260    -1.4981 H       
@<TRIPOS>BOND
   1    1    2 ar
   2    1    6 ar
   3    1   29 1
   4    2    3 ar
   5    2   15 1
   6    3    4 ar
   7    3   30 1
   8    4    5 ar
   9    4   31 1
  10    5    7 ar
  11    5    6 ar
  12    6   10 ar
  13    7    8 ar
  14    7   11 1
  15    8    9 ar
  16    8   32 1
  17    9   10 ar
  18    9   12 1
  19   11   22 2
  20   11   25 1
  21   12   13 2
  22   12   14 am
  23   14   33 1
  24   14   34 1
  25   15   16 1
  26   15   35 1
  27   15   36 1
  28   16   17 1
  29   16   21 1
  30   17   18 1
  31   17   27 1
  32   17   37 1
  33   18   19 1
  34   18   38 1
  35   18   39 1
  36   19   20 1
  37   20   21 1
  38   20   40 1
  39   20   41 1
  40   21   28 1
  41   21   42 1
  42   22   23 1
  43   22   43 1
  44   23   24 1
  45   23   26 1
  46   24   25 2
  47   25   44 1
  48   26   45 1
  49   26   46 1
  50   26   47 1
  51   27   48 1
  52   27   49 1
  53   27   50 1
  54   28   51 1
  55   28   52 1
  56   28   53 1

#	End of record

