#	Name: ASD01911137
#	Creating user name:	WinNT
#	Creation time:	15. 06. 2019 19:57

#	Modifying user name:	WinNT
#	Modification time:	15. 06. 2019 19:57

#	Program:	/corina/corina34_cracker 3.40 0067  02.08.2006

@<TRIPOS>MOLECULE
ASD01911137
  45   48    0    0    0
SMALL
NO_CHARGES


@<TRIPOS>ATOM
   1 C1             0.0259     1.2291     0.7898 C.2     
   2 O2             0.0736     0.0173     0.7057 O.2     
   3 C3             1.2747     2.0132     0.8783 C.ar    
   4 C4             2.3663     1.5141     1.5921 C.ar    
   5 C5             3.6163     3.4834     1.0444 C.ar    
   6 C6             1.3699     3.2535     0.2437 C.ar    
   7 C7             3.5292     2.2499     1.6716 C.ar    
   8 C8             2.5375     3.9810     0.3296 C.ar    
   9 F9             4.7583     4.2007     1.1257 F       
  10 N10           -1.1664     1.8577     0.7968 N.am    
  11 C11           -2.4086     1.1091     0.5618 C.3     
  12 C12           -3.3768     1.3855     1.7163 C.3     
  13 C13           -3.5715     2.8964     1.8629 C.3     
  14 C14           -2.2297     3.5561     2.1892 C.3     
  15 C15           -1.2490     3.3033     1.0456 C.3     
  16 O16           -5.4989     0.9786     0.3810 O.3     
  17 N17           -6.4924     0.2857     0.4449 N.2     
  18 C18           -6.4497    -0.4643     1.5116 C.2     
  19 N19           -5.2971    -0.1825     2.1535 N.2     
  20 C20           -4.7040     0.7331     1.4270 C.2     
  21 O21           -7.3896    -1.3604     1.9027 O.3     
  22 C22           -8.5396    -1.4341     1.1824 C.ar    
  23 C23           -8.6671    -0.7165     0.0021 C.ar    
  24 C24           -9.8390    -0.7934    -0.7291 C.ar    
  25 C25          -10.8834    -1.5862    -0.2824 C.ar    
  26 C26          -10.7566    -2.3013     0.8935 C.ar    
  27 C27           -9.5856    -2.2316     1.6237 C.ar    
  28 F28           -9.9650    -0.0948    -1.8785 F       
  29 H29            2.2994     0.5536     2.0813 H       
  30 H30            0.5302     3.6419    -0.3136 H       
  31 H31            4.3739     1.8650     2.2236 H       
  32 H32            2.6106     4.9424    -0.1571 H       
  33 H33           -2.8579     1.4324    -0.3772 H       
  34 H34           -2.1894     0.0424     0.5161 H       
  35 H35           -2.9655     0.9803     2.6409 H       
  36 H36           -3.9595     3.3048     0.9297 H       
  37 H37           -4.2790     3.0950     2.6679 H       
  38 H38           -2.3732     4.6291     2.3165 H       
  39 H39           -1.8292     3.1305     3.1093 H       
  40 H40           -0.2649     3.6839     1.3191 H       
  41 H41           -1.6018     3.8092     0.1468 H       
  42 H42           -7.8526    -0.0982    -0.3454 H       
  43 H43          -11.7980    -1.6454    -0.8537 H       
  44 H44          -11.5722    -2.9188     1.2398 H       
  45 H45           -9.4862    -2.7947     2.5399 H       
@<TRIPOS>BOND
   1    1    2 2
   2    1    3 1
   3    1   10 am
   4    3    4 ar
   5    3    6 ar
   6    4    7 ar
   7    4   29 1
   8    5    7 ar
   9    5    8 ar
  10    5    9 1
  11    6    8 ar
  12    6   30 1
  13    7   31 1
  14    8   32 1
  15   10   11 1
  16   10   15 1
  17   11   12 1
  18   11   33 1
  19   11   34 1
  20   12   13 1
  21   12   20 1
  22   12   35 1
  23   13   14 1
  24   13   36 1
  25   13   37 1
  26   14   15 1
  27   14   38 1
  28   14   39 1
  29   15   40 1
  30   15   41 1
  31   16   17 1
  32   16   20 1
  33   17   18 2
  34   18   19 1
  35   18   21 1
  36   19   20 2
  37   21   22 1
  38   22   23 ar
  39   22   27 ar
  40   23   24 ar
  41   23   42 1
  42   24   25 ar
  43   24   28 1
  44   25   26 ar
  45   25   43 1
  46   26   27 ar
  47   26   44 1
  48   27   45 1

#	End of record

