#	Name: ASD01412042
#	Creating user name:	WinNT
#	Creation time:	15. 06. 2019 19:19

#	Modifying user name:	WinNT
#	Modification time:	15. 06. 2019 19:19

#	Program:	/corina/corina34_cracker 3.40 0067  02.08.2006

@<TRIPOS>MOLECULE
ASD01412042
  54   57    0    0    0
SMALL
NO_CHARGES


@<TRIPOS>ATOM
   1 C1            -0.0146     1.4509    -0.0726 C.ar    
   2 C2             0.0178     0.0537    -0.0504 C.ar    
   3 C3            -1.1558    -0.6761    -0.0098 C.ar    
   4 C4            -2.3823    -0.0208     0.0089 C.ar    
   5 C5            -2.4125     1.3852    -0.0134 C.ar    
   6 C6            -1.2227     2.1157    -0.0487 C.ar    
   7 N7            -3.5583    -0.7409     0.0484 N.pl3   
   8 C8            -4.7644    -0.1601     0.0670 C.2     
   9 C9            -4.9201     1.2122     0.0482 C.2     
  10 C10           -3.7196     2.0638     0.0069 C.2     
  11 O11           -3.8040     3.2796    -0.0107 O.2     
  12 C12           -3.4841    -2.2039     0.0706 C.3     
  13 C13           -3.4252    -2.6823     1.4984 C.ar    
  14 C14           -4.5934    -2.9618     2.1825 C.ar    
  15 C15           -4.5393    -3.4006     3.4922 C.ar    
  16 C16           -3.3170    -3.5603     4.1177 C.ar    
  17 C17           -2.1487    -3.2817     3.4334 C.ar    
  18 C18           -2.2026    -2.8470     2.1222 C.ar    
  19 O19            1.1477     2.1563    -0.1121 O.3     
  20 O20            1.2121    -0.5925    -0.0694 O.3     
  21 C21            1.1774    -2.0209    -0.0451 C.3     
  22 C22            1.0415     3.5812    -0.1329 C.3     
  23 C23           -6.2616     1.8123     0.0687 C.2     
  24 C24           -6.6987     2.6059     1.2372 C.ar    
  25 O25           -7.0123     1.6560    -0.8757 O.2     
  26 C26           -7.9237     3.2752     1.2116 C.ar    
  27 C27           -8.3255     4.0138     2.3051 C.ar    
  28 C28           -7.5172     4.0927     3.4254 C.ar    
  29 C29           -6.3017     3.4321     3.4572 C.ar    
  30 C30           -5.8909     2.6846     2.3732 C.ar    
  31 C31           -7.9625     4.9020     4.6162 C.3     
  32 H32           -1.1201    -1.7553     0.0070 H       
  33 H33           -1.2487     3.1952    -0.0657 H       
  34 H34           -5.6446    -0.7851     0.0973 H       
  35 H35           -4.3665    -2.6198    -0.4158 H       
  36 H36           -2.5893    -2.5304    -0.4593 H       
  37 H37           -5.5484    -2.8371     1.6938 H       
  38 H38           -5.4521    -3.6184     4.0269 H       
  39 H39           -3.2748    -3.9025     5.1412 H       
  40 H40           -1.1937    -3.4061     3.9222 H       
  41 H41           -1.2899    -2.6293     1.5875 H       
  42 H42            2.1956    -2.4095    -0.0640 H       
  43 H43            0.6771    -2.3568     0.8632 H       
  44 H44            0.6330    -2.3860    -0.9160 H       
  45 H45            2.0390     4.0195    -0.1640 H       
  46 H46            0.4808     3.8908    -1.0148 H       
  47 H47            0.5236     3.9200     0.7644 H       
  48 H48           -8.5552     3.2150     0.3375 H       
  49 H49           -9.2728     4.5321     2.2866 H       
  50 H50           -5.6753     3.4984     4.3345 H       
  51 H51           -4.9422     2.1692     2.3994 H       
  52 H52           -8.5317     4.2668     5.2949 H       
  53 H53           -7.0887     5.2964     5.1347 H       
  54 H54           -8.5892     5.7281     4.2802 H       
@<TRIPOS>BOND
   1    1    2 ar
   2    1   19 1
   3    1    6 ar
   4    2    3 ar
   5    2   20 1
   6    3    4 ar
   7    3   32 1
   8    4    5 ar
   9    4    7 1
  10    5    6 ar
  11    5   10 1
  12    6   33 1
  13    7    8 1
  14    7   12 1
  15    8    9 2
  16    8   34 1
  17    9   10 1
  18    9   23 1
  19   10   11 2
  20   12   13 1
  21   12   35 1
  22   12   36 1
  23   13   14 ar
  24   13   18 ar
  25   14   15 ar
  26   14   37 1
  27   15   16 ar
  28   15   38 1
  29   16   17 ar
  30   16   39 1
  31   17   18 ar
  32   17   40 1
  33   18   41 1
  34   19   22 1
  35   20   21 1
  36   21   42 1
  37   21   43 1
  38   21   44 1
  39   22   45 1
  40   22   46 1
  41   22   47 1
  42   23   24 1
  43   23   25 2
  44   24   26 ar
  45   24   30 ar
  46   26   27 ar
  47   26   48 1
  48   27   28 ar
  49   27   49 1
  50   28   29 ar
  51   28   31 1
  52   29   30 ar
  53   29   50 1
  54   30   51 1
  55   31   52 1
  56   31   53 1
  57   31   54 1

#	End of record

