#	Name: ASD04882012
#	Creating user name:	WinNT
#	Creation time:	15. 06. 2019 20:53

#	Modifying user name:	WinNT
#	Modification time:	15. 06. 2019 20:53

#	Program:	/corina/corina34_cracker 3.40 0067  02.08.2006

@<TRIPOS>MOLECULE
ASD04882012
  74   78    0    0    0
SMALL
NO_CHARGES


@<TRIPOS>ATOM
   1 C1            -0.7147     2.6804     2.0388 C.ar    
   2 C2            -0.7542     1.3046     1.9071 C.ar    
   3 C3             0.4206     0.5836     1.7935 C.ar    
   4 C4             1.6374     1.2361     1.8113 C.ar    
   5 C5             1.6808     2.6184     1.9435 C.ar    
   6 C6             0.4991     3.3394     2.0574 C.ar    
   7 C7             0.5412     4.8389     2.2010 C.3     
   8 N8             2.9099     3.2816     1.9624 N.3     
   9 C9             3.0755     4.1180     0.7654 C.3     
  10 C10            4.3953     4.8868     0.8622 C.3     
  11 N11            5.5061     3.9335     0.9928 N.3     
  12 C12            5.3405     3.0972     2.1898 C.3     
  13 C13            4.0207     2.3283     2.0930 C.3     
  14 C14            6.7315     4.5947     1.0116 C.ar    
  15 C15            7.5069     4.5863     2.1649 C.ar    
  16 C16            8.7196     5.2394     2.1881 C.ar    
  17 C17            9.1739     5.9124     1.0509 C.ar    
  18 C18            8.3960     5.9220    -0.1108 C.ar    
  19 C19            7.1826     5.2613    -0.1315 C.ar    
  20 N20            6.4004     5.2681    -1.2937 N.am    
  21 C21            6.5103     6.2827    -2.1740 C.2     
  22 C22            5.6264     6.3390    -3.3410 C.2     
  23 O23            7.3441     7.1523    -1.9995 O.2     
  24 O24            4.6642     5.4448    -3.6514 O.3     
  25 C25            5.6273     7.3094    -4.3037 C.2     
  26 C26            4.6228     6.9657    -5.2234 C.2     
  27 C27            4.0587     5.8187    -4.7862 C.2     
  28 C28           10.4724     6.6122     1.0761 C.2     
  29 N29           11.2214     6.6026     2.1966 N.am    
  30 O30           10.8670     7.1975     0.0861 O.2     
  31 C31           12.5109     7.2975     2.2216 C.3     
  32 C32           13.1523     7.1326     3.6009 C.3     
  33 C33           14.4990     7.8584     3.6270 C.3     
  34 N34           15.1132     7.7005     4.9476 N.am    
  35 C35           15.9371     6.6935     5.2854 C.2     
  36 C36           14.9131     8.6249     6.0699 C.3     
  37 C37           15.3694     7.8517     7.3271 C.3     
  38 C38           16.3744     6.8401     6.7262 C.3     
  39 O39           16.2795     5.7974     4.5433 O.2     
  40 Br40           6.7601     8.8216    -4.3815 Br      
  41 H41           -1.6341     3.2408     2.1228 H       
  42 H42           -1.7045     0.7917     1.8932 H       
  43 H43            0.3863    -0.4910     1.6911 H       
  44 H44            2.5545     0.6725     1.7229 H       
  45 H45            0.5912     5.2973     1.2133 H       
  46 H46           -0.3576     5.1801     2.7148 H       
  47 H47            1.4204     5.1241     2.7788 H       
  48 H48            3.0876     3.4848    -0.1218 H       
  49 H49            2.2476     4.8237     0.6976 H       
  50 H50            4.5340     5.4858    -0.0379 H       
  51 H51            4.3724     5.5403     1.7343 H       
  52 H52            6.1684     2.3914     2.2576 H       
  53 H53            5.3284     3.7303     3.0770 H       
  54 H54            3.8819     1.7294     2.9931 H       
  55 H55            4.0436     1.6749     1.2209 H       
  56 H56            7.1578     4.0668     3.0451 H       
  57 H57            9.3196     5.2316     3.0861 H       
  58 H58            8.7444     6.4416    -0.9911 H       
  59 H59            5.7796     4.5427    -1.4647 H       
  60 H60            4.3507     7.5164    -6.1117 H       
  61 H61            3.2525     5.2896    -5.2724 H       
  62 H62           10.9067     6.1357     2.9864 H       
  63 H63           13.1674     6.8726     1.4624 H       
  64 H64           12.3567     8.3570     2.0170 H       
  65 H65           12.4958     7.5576     4.3601 H       
  66 H66           13.3065     6.0732     3.8055 H       
  67 H67           15.1556     7.4334     2.8678 H       
  68 H68           14.3448     8.9178     3.4223 H       
  69 H69           15.5218     9.5190     5.9353 H       
  70 H70           13.8601     8.8937     6.1539 H       
  71 H71           15.8638     8.5163     8.0356 H       
  72 H72           14.5295     7.3392     7.7960 H       
  73 H73           16.3084     5.8833     7.2443 H       
  74 H74           17.3894     7.2340     6.7783 H       
@<TRIPOS>BOND
   1    1    2 ar
   2    1    6 ar
   3    1   41 1
   4    2    3 ar
   5    2   42 1
   6    3    4 ar
   7    3   43 1
   8    4    5 ar
   9    4   44 1
  10    5    6 ar
  11    5    8 1
  12    6    7 1
  13    7   45 1
  14    7   46 1
  15    7   47 1
  16    8    9 1
  17    8   13 1
  18    9   10 1
  19    9   48 1
  20    9   49 1
  21   10   11 1
  22   10   50 1
  23   10   51 1
  24   11   12 1
  25   11   14 1
  26   12   13 1
  27   12   52 1
  28   12   53 1
  29   13   54 1
  30   13   55 1
  31   14   15 ar
  32   14   19 ar
  33   15   16 ar
  34   15   56 1
  35   16   17 ar
  36   16   57 1
  37   17   18 ar
  38   17   28 1
  39   18   19 ar
  40   18   58 1
  41   19   20 1
  42   20   21 am
  43   20   59 1
  44   21   22 1
  45   21   23 2
  46   22   24 1
  47   22   25 2
  48   24   27 1
  49   25   26 1
  50   25   40 1
  51   26   27 2
  52   26   60 1
  53   27   61 1
  54   28   29 am
  55   28   30 2
  56   29   31 1
  57   29   62 1
  58   31   32 1
  59   31   63 1
  60   31   64 1
  61   32   33 1
  62   32   65 1
  63   32   66 1
  64   33   34 1
  65   33   67 1
  66   33   68 1
  67   34   35 am
  68   34   36 1
  69   35   39 2
  70   35   38 1
  71   36   37 1
  72   36   69 1
  73   36   70 1
  74   37   38 1
  75   37   71 1
  76   37   72 1
  77   38   73 1
  78   38   74 1

#	End of record

