#	Name: ASD03091511
#	Creating user name:	WinNT
#	Creation time:	15. 06. 2019 20:30

#	Modifying user name:	WinNT
#	Modification time:	15. 06. 2019 20:30

#	Program:	/corina/corina34_cracker 3.40 0067  02.08.2006

@<TRIPOS>MOLECULE
ASD03091511
  46   47    0    0    0
SMALL
NO_CHARGES


@<TRIPOS>ATOM
   1 C1            -0.0167     1.3824     0.0096 C.ar    
   2 C2             0.0021    -0.0041     0.0020 C.ar    
   3 C3             1.2046    -0.6815    -0.0131 C.ar    
   4 C4             2.4062     0.0180    -0.0204 C.ar    
   5 C5             2.4068     1.3992    -0.0129 C.ar    
   6 C6             1.1923     2.0960     0.0019 C.ar    
   7 C7             1.1833     3.5639     0.0094 C.2     
   8 O8             0.1292     4.1639     0.0223 O.2     
   9 C9             2.4837     4.3254     0.0011 C.3     
  10 C10            2.1950     5.8279     0.0114 C.3     
  11 C11            3.4954     6.5894     0.0030 C.ar    
  12 C12            4.1326     6.8603    -1.1999 C.ar    
  13 C13            4.0494     7.0222     1.1923 C.ar    
  14 C14            5.2418     7.7207     1.1880 C.ar    
  15 C15            5.8853     7.9896    -0.0115 C.ar    
  16 C16            5.3287     7.5608    -1.2069 C.ar    
  17 O17            7.0574     8.6773    -0.0152 O.3     
  18 O18           -1.1994     2.0471     0.0188 O.3     
  19 O19            3.5849    -0.6601    -0.0344 O.3     
  20 O20            3.5845     6.4388    -2.3698 O.3     
  21 C21           -2.3888     1.2550     0.0202 C.3     
  22 C22            3.5123    -2.0872    -0.0409 C.3     
  23 C23            4.2948     6.7529    -3.5693 C.3     
  24 C24            7.5696     9.0931     1.2524 C.3     
  25 H25           -0.9266    -0.5553     0.0083 H       
  26 H26            1.2122    -1.7614    -0.0190 H       
  27 H27            3.3415     1.9403    -0.0182 H       
  28 H28            3.0652     4.0611     0.8843 H       
  29 H29            3.0486     4.0701    -0.8955 H       
  30 H30            1.6135     6.0921    -0.8719 H       
  31 H31            1.6302     6.0832     0.9080 H       
  32 H32            3.5497     6.8145     2.1270 H       
  33 H33            5.6730     8.0580     2.1190 H       
  34 H34            5.8258     7.7729    -2.1419 H       
  35 H35           -2.4022     0.6211     0.9068 H       
  36 H36           -3.2608     1.9089     0.0278 H       
  37 H37           -2.4106     0.6308    -0.8731 H       
  38 H38            2.9887    -2.4285     0.8521 H       
  39 H39            2.9727    -2.4195    -0.9278 H       
  40 H40            4.5202    -2.5022    -0.0520 H       
  41 H41            5.2872     6.3036    -3.5321 H       
  42 H42            3.7500     6.3599    -4.4277 H       
  43 H43            4.3890     7.8348    -3.6630 H       
  44 H44            6.8471     9.7483     1.7390 H       
  45 H45            7.7455     8.2180     1.8780 H       
  46 H46            8.5070     9.6302     1.1071 H       
@<TRIPOS>BOND
   1    1    2 ar
   2    1    6 ar
   3    1   18 1
   4    2    3 ar
   5    2   25 1
   6    3    4 ar
   7    3   26 1
   8    4    5 ar
   9    4   19 1
  10    5    6 ar
  11    5   27 1
  12    6    7 1
  13    7    8 2
  14    7    9 1
  15    9   10 1
  16    9   28 1
  17    9   29 1
  18   10   11 1
  19   10   30 1
  20   10   31 1
  21   11   13 ar
  22   11   12 ar
  23   12   16 ar
  24   12   20 1
  25   13   14 ar
  26   13   32 1
  27   14   15 ar
  28   14   33 1
  29   15   16 ar
  30   15   17 1
  31   16   34 1
  32   17   24 1
  33   18   21 1
  34   19   22 1
  35   20   23 1
  36   21   35 1
  37   21   36 1
  38   21   37 1
  39   22   38 1
  40   22   39 1
  41   22   40 1
  42   23   41 1
  43   23   42 1
  44   23   43 1
  45   24   44 1
  46   24   45 1
  47   24   46 1

#	End of record

