#	Name: ASD01884871
#	Creating user name:	WinNT
#	Creation time:	15. 06. 2019 19:49

#	Modifying user name:	WinNT
#	Modification time:	15. 06. 2019 19:49

#	Program:	/corina/corina34_cracker 3.40 0067  02.08.2006

@<TRIPOS>MOLECULE
ASD01884871
  44   48    0    0    0
SMALL
NO_CHARGES


@<TRIPOS>ATOM
   1 C1            -0.0164     1.3606     0.0095 C.ar    
   2 C2             0.0021    -0.0041     0.0020 C.ar    
   3 C3             1.2156    -0.7017    -0.0128 C.ar    
   4 C4             2.4185    -0.0062    -0.0206 C.ar    
   5 C5             2.4033     1.3879    -0.0134 C.ar    
   6 C6             1.1765     2.0776     0.0020 C.ar    
   7 C7             3.4480     2.4163    -0.0172 C.2     
   8 C8             2.8285     3.6063    -0.0050 C.2     
   9 N9             1.4695     3.4258     0.0067 N.pl3   
  10 C10            1.2174    -2.1832    -0.0198 C.2     
  11 C11            0.7035    -2.8758    -1.1000 C.2     
  12 C12            1.7515    -2.9027     1.0787 C.2     
  13 C13            1.7538    -4.2474     1.0726 C.2     
  14 N14            1.2432    -4.9441     0.0113 N.pl3   
  15 C15            0.7193    -4.2828    -1.0784 C.2     
  16 Cl16           0.0481    -2.0228    -2.4625 Cl      
  17 C17            1.1149    -6.2724    -0.2645 C.2     
  18 N18            0.5457    -6.3758    -1.4422 N.2     
  19 N19            0.3100    -5.2083    -1.9287 N.2     
  20 O20            1.5049    -7.2996     0.5322 O.3     
  21 C21            0.5240     4.4523     0.0202 C.ar    
  22 N22           -0.7657     4.1555     0.0302 N.ar    
  23 C23           -1.6919     5.0949     0.0430 C.ar    
  24 C24           -1.3448     6.4314     0.0465 C.ar    
  25 C25           -0.0023     6.7849     0.0363 C.ar    
  26 C26            0.9456     5.7769     0.0287 C.ar    
  27 C27            1.2740    -8.6227     0.0444 C.3     
  28 C28            1.7756    -9.6397     1.0715 C.3     
  29 H29           -0.9600     1.8860     0.0168 H       
  30 H30           -0.9290    -0.5513     0.0080 H       
  31 H31            3.3569    -0.5408    -0.0317 H       
  32 H32            4.5148     2.2478    -0.0273 H       
  33 H33            3.3267     4.5646    -0.0042 H       
  34 H34            2.1589    -2.3683     1.9243 H       
  35 H35            2.1639    -4.7840     1.9153 H       
  36 H36           -2.7350     4.8150     0.0505 H       
  37 H37           -2.1098     7.1937     0.0567 H       
  38 H38            0.2955     7.8230     0.0385 H       
  39 H39            1.9988     6.0161     0.0210 H       
  40 H40            0.2062    -8.7683    -0.1195 H       
  41 H41            1.8081    -8.7619    -0.8955 H       
  42 H42            2.8433    -9.4941     1.2354 H       
  43 H43            1.2414    -9.5006     2.0114 H       
  44 H44            1.5994   -10.6490     0.6995 H       
@<TRIPOS>BOND
   1    1    2 ar
   2    1    6 ar
   3    1   29 1
   4    2    3 ar
   5    2   30 1
   6    3    4 ar
   7    3   10 1
   8    4    5 ar
   9    4   31 1
  10    5    6 ar
  11    5    7 1
  12    6    9 1
  13    7    8 2
  14    7   32 1
  15    8    9 1
  16    8   33 1
  17    9   21 1
  18   10   11 2
  19   10   12 1
  20   11   16 1
  21   11   15 1
  22   12   13 2
  23   12   34 1
  24   13   14 1
  25   13   35 1
  26   14   15 1
  27   14   17 1
  28   15   19 2
  29   17   18 2
  30   17   20 1
  31   18   19 1
  32   20   27 1
  33   21   22 ar
  34   21   26 ar
  35   22   23 ar
  36   23   24 ar
  37   23   36 1
  38   24   25 ar
  39   24   37 1
  40   25   26 ar
  41   25   38 1
  42   26   39 1
  43   27   28 1
  44   27   40 1
  45   27   41 1
  46   28   42 1
  47   28   43 1
  48   28   44 1

#	End of record

