#	Name: ASD05130119
#	Creating user name:	WinNT
#	Creation time:	15. 06. 2019 20:56

#	Modifying user name:	WinNT
#	Modification time:	15. 06. 2019 20:56

#	Program:	/corina/corina34_cracker 3.40 0067  02.08.2006

@<TRIPOS>MOLECULE
ASD05130119
  74   78    0    0    0
SMALL
NO_CHARGES


@<TRIPOS>ATOM
   1 N1            -0.1624     1.5512     0.1045 N.am    
   2 C2             0.0503     0.4235     0.8112 C.2     
   3 O3             1.1174     0.2461     1.3664 O.2     
   4 N4            -0.9198    -0.5076     0.9025 N.am    
   5 C5            -0.6639    -1.7247     1.5464 C.ar    
   6 C6            -1.6748    -2.3642     2.2517 C.ar    
   7 C7            -1.4205    -3.5645     2.8855 C.ar    
   8 C8            -0.1582    -4.1303     2.8184 C.ar    
   9 C9             0.8511    -3.4943     2.1158 C.ar    
  10 C10            0.5992    -2.2963     1.4756 C.ar    
  11 C11           -2.5172    -4.2590     3.6510 C.3     
  12 N12           -3.0022    -5.4093     2.8768 N.3     
  13 C13           -3.8993    -6.2473     3.6845 C.3     
  14 C14           -4.4440    -7.3871     2.8204 C.3     
  15 N15           -3.3228    -8.1773     2.2929 N.3     
  16 C16           -2.4256    -7.3392     1.4852 C.3     
  17 C17           -1.8810    -6.1995     2.3493 C.3     
  18 C18           -3.8077    -9.3276     1.5187 C.3     
  19 F19            0.0888    -5.3041     3.4399 F       
  20 C20            0.8111     2.5581     0.0825 C.ar    
  21 C21            0.4345     3.8870    -0.0893 C.ar    
  22 C22            1.3937     4.8839    -0.1120 C.ar    
  23 C23            2.7290     4.5658     0.0357 C.ar    
  24 C24            3.1147     3.2369     0.2083 C.ar    
  25 C25            2.1485     2.2323     0.2374 C.ar    
  26 C26            3.7702     5.6550     0.0098 C.3     
  27 F27           -0.8707     4.2041    -0.2348 F       
  28 N28            6.3815     2.2208     1.8264 N.am    
  29 C29            5.0789     2.5341     1.6824 C.2     
  30 C30            4.5476     2.8939     0.3659 C.2     
  31 C31            5.3829     2.9110    -0.7177 C.2     
  32 C32            6.7470     2.5790    -0.5407 C.ar    
  33 C33            7.6374     2.5839    -1.6215 C.ar    
  34 N34            8.9022     2.2729    -1.4398 N.ar    
  35 C35            9.3867     1.9460    -0.2464 C.ar    
  36 C36            8.5739     1.9165     0.8779 C.ar    
  37 C37            7.2281     2.2364     0.7420 C.ar    
  38 O38            4.3399     2.5159     2.6506 O.2     
  39 C39            6.9021     1.8684     3.1496 C.3     
  40 C40            6.7772     0.3582     3.3612 C.3     
  41 N41           10.7311     1.6276    -0.1221 N.pl3   
  42 H42           -0.9880     1.6639    -0.3922 H       
  43 H43           -1.7953    -0.3348     0.5223 H       
  44 H44           -2.6591    -1.9230     2.3048 H       
  45 H45            1.8348    -3.9371     2.0646 H       
  46 H46            1.3857    -1.8026     0.9241 H       
  47 H47           -2.1291    -4.6037     4.6095 H       
  48 H48           -3.3387    -3.5629     3.8208 H       
  49 H49           -3.3478    -6.6622     4.5282 H       
  50 H50           -4.7279    -5.6426     4.0532 H       
  51 H51           -5.0869    -8.0266     3.4251 H       
  52 H52           -5.0184    -6.9727     1.9918 H       
  53 H53           -1.5971    -7.9440     1.1165 H       
  54 H54           -2.9771    -6.9244     0.6415 H       
  55 H55           -1.2380    -5.5599     1.7446 H       
  56 H56           -1.3066    -6.6138     3.1779 H       
  57 H57           -4.4104    -8.9743     0.6820 H       
  58 H58           -2.9576    -9.8951     1.1400 H       
  59 H59           -4.4149    -9.9669     2.1595 H       
  60 H60            1.0971     5.9137    -0.2459 H       
  61 H61            2.4424     1.2023     0.3757 H       
  62 H62            3.9342     6.0249     1.0219 H       
  63 H63            4.7037     5.2559    -0.3868 H       
  64 H64            3.4257     6.4719    -0.6243 H       
  65 H65            5.0060     3.1739    -1.6951 H       
  66 H66            7.2839     2.8439    -2.6084 H       
  67 H67            8.9800     1.6488     1.8422 H       
  68 H68            7.9505     2.1592     3.2169 H       
  69 H69            6.3301     2.3912     3.9162 H       
  70 H70            5.7289     0.0674     3.2940 H       
  71 H71            7.3492    -0.1646     2.5947 H       
  72 H72            7.1646     0.0960     4.3458 H       
  73 H73           11.3078     1.6449    -0.9020 H       
  74 H74           11.0946     1.3877     0.7446 H       
@<TRIPOS>BOND
   1    1    2 am
   2    1   20 1
   3    1   42 1
   4    2    3 2
   5    2    4 am
   6    4    5 1
   7    4   43 1
   8    5    6 ar
   9    5   10 ar
  10    6    7 ar
  11    6   44 1
  12    7    8 ar
  13    7   11 1
  14    8    9 ar
  15    8   19 1
  16    9   10 ar
  17    9   45 1
  18   10   46 1
  19   11   12 1
  20   11   47 1
  21   11   48 1
  22   12   13 1
  23   12   17 1
  24   13   14 1
  25   13   49 1
  26   13   50 1
  27   14   15 1
  28   14   51 1
  29   14   52 1
  30   15   16 1
  31   15   18 1
  32   16   17 1
  33   16   53 1
  34   16   54 1
  35   17   55 1
  36   17   56 1
  37   18   57 1
  38   18   58 1
  39   18   59 1
  40   20   21 ar
  41   20   25 ar
  42   21   22 ar
  43   21   27 1
  44   22   23 ar
  45   22   60 1
  46   23   24 ar
  47   23   26 1
  48   24   25 ar
  49   24   30 1
  50   25   61 1
  51   26   62 1
  52   26   63 1
  53   26   64 1
  54   28   29 am
  55   28   37 1
  56   28   39 1
  57   29   30 1
  58   29   38 2
  59   30   31 2
  60   31   32 1
  61   31   65 1
  62   32   33 ar
  63   32   37 ar
  64   33   34 ar
  65   33   66 1
  66   34   35 ar
  67   35   36 ar
  68   35   41 1
  69   36   37 ar
  70   36   67 1
  71   39   40 1
  72   39   68 1
  73   39   69 1
  74   40   70 1
  75   40   71 1
  76   40   72 1
  77   41   73 1
  78   41   74 1

#	End of record

