#	Name: ASD04590422
#	Creating user name:	WinNT
#	Creation time:	15. 06. 2019 20:50

#	Modifying user name:	WinNT
#	Modification time:	15. 06. 2019 20:50

#	Program:	/corina/corina34_cracker 3.40 0067  02.08.2006

@<TRIPOS>MOLECULE
ASD04590422
  58   62    0    0    0
SMALL
NO_CHARGES


@<TRIPOS>ATOM
   1 C1            -0.0669     1.3373    -0.3847 C.ar    
   2 C2            -0.0038    -0.0146    -0.0036 C.ar    
   3 C3            -2.3805    -0.0127     0.3916 C.ar    
   4 C4            -2.4311     1.3455     0.0197 C.ar    
   5 C5            -1.2751     2.0069    -0.3712 C.ar    
   6 N6            -3.6441    -0.3847     0.7213 N.2     
   7 C7            -4.4532     0.6358     0.5794 C.2     
   8 N8            -3.7499     1.7301     0.1471 N.pl3   
   9 C9            -5.9064     0.6109     0.8449 C.2     
  10 C10           -6.6511    -0.5057     1.2904 C.2     
  11 C11           -7.9443    -0.1182     1.4117 C.2     
  12 N12           -8.0217     1.1917     1.0581 N.pl3   
  13 N13           -6.7361     1.6274     0.7133 N.2     
  14 N14           -6.1420    -1.7867     1.5585 N.am    
  15 C15           -6.9675    -2.7653     1.9798 C.2     
  16 O16           -8.1531    -2.5389     2.1279 O.2     
  17 C17           -6.4327    -4.1111     2.2614 C.ar    
  18 C18           -1.1608    -0.6862     0.3833 C.ar    
  19 C19           -5.8803    -6.3329     1.5206 C.ar    
  20 C20           -5.4283    -6.6412     2.7909 C.ar    
  21 C21           -5.4793    -5.6967     3.8000 C.ar    
  22 C22           -5.9784    -4.4332     3.5448 C.ar    
  23 C23           -6.3824    -5.0743     1.2479 C.ar    
  24 F24           -6.8237    -4.7754     0.0066 F       
  25 F25           -6.0269    -3.5119     4.5317 F       
  26 C26            1.2892    -0.7224    -0.0141 C.2     
  27 N27            1.6472    -1.4876     1.0361 N.am    
  28 O28            2.0330    -0.6159    -0.9704 O.2     
  29 O29            1.0633     1.9879    -0.7616 O.3     
  30 C30            0.9276     3.3601    -1.1365 C.3     
  31 C31            2.2969     3.9199    -1.5270 C.3     
  32 C32            2.8738    -2.2996     0.9985 C.3     
  33 C33            0.8261    -1.5309     2.2565 C.3     
  34 C34            1.7392    -1.2824     3.4625 C.3     
  35 O35            2.8456    -2.1862     3.4093 O.3     
  36 C36            3.6830    -2.0121     2.2684 C.3     
  37 H37           -1.3202     3.0453    -0.6646 H       
  38 H38           -4.1120     2.6113    -0.0349 H       
  39 H39           -8.7671    -0.7401     1.7321 H       
  40 H40           -8.8270     1.7323     1.0497 H       
  41 H41           -5.1963    -1.9673     1.4404 H       
  42 H42           -1.1129    -1.7248     0.6755 H       
  43 H43           -5.8368    -7.0764     0.7385 H       
  44 H44           -5.0375    -7.6266     2.9972 H       
  45 H45           -5.1246    -5.9458     4.7891 H       
  46 H46            0.2474     3.4395    -1.9845 H       
  47 H47            0.5288     3.9286    -0.2963 H       
  48 H48            2.9772     3.8405    -0.6790 H       
  49 H49            2.6957     3.3515    -2.3671 H       
  50 H50            2.1934     4.9667    -1.8129 H       
  51 H51            2.6129    -3.3572     0.9610 H       
  52 H52            3.4626    -2.0348     0.1202 H       
  53 H53            0.0595    -0.7573     2.2108 H       
  54 H54            0.3555    -2.5098     2.3478 H       
  55 H55            2.1057    -0.2562     3.4364 H       
  56 H56            1.1790    -1.4465     4.3831 H       
  57 H57            4.5229    -2.7046     2.3242 H       
  58 H58            4.0554    -0.9881     2.2429 H       
@<TRIPOS>BOND
   1    1    2 ar
   2    1   29 1
   3    1    5 ar
   4    2   18 ar
   5    2   26 1
   6    3    4 ar
   7    3    6 1
   8    3   18 ar
   9    4    5 ar
  10    4    8 1
  11    5   37 1
  12    6    7 2
  13    7    8 1
  14    7    9 1
  15    8   38 1
  16    9   10 1
  17    9   13 2
  18   10   11 2
  19   10   14 1
  20   11   12 1
  21   11   39 1
  22   12   13 1
  23   12   40 1
  24   14   15 am
  25   14   41 1
  26   15   16 2
  27   15   17 1
  28   17   23 ar
  29   17   22 ar
  30   18   42 1
  31   19   20 ar
  32   19   23 ar
  33   19   43 1
  34   20   21 ar
  35   20   44 1
  36   21   22 ar
  37   21   45 1
  38   22   25 1
  39   23   24 1
  40   26   27 am
  41   26   28 2
  42   27   32 1
  43   27   33 1
  44   29   30 1
  45   30   31 1
  46   30   46 1
  47   30   47 1
  48   31   48 1
  49   31   49 1
  50   31   50 1
  51   32   36 1
  52   32   51 1
  53   32   52 1
  54   33   34 1
  55   33   53 1
  56   33   54 1
  57   34   35 1
  58   34   55 1
  59   34   56 1
  60   35   36 1
  61   36   57 1
  62   36   58 1

#	End of record

