#	Name: ASD03200051
#	Creating user name:	WinNT
#	Creation time:	15. 06. 2019 20:34

#	Modifying user name:	WinNT
#	Modification time:	15. 06. 2019 20:34

#	Program:	/corina/corina34_cracker 3.40 0067  02.08.2006

@<TRIPOS>MOLECULE
ASD03200051
  47   50    0    0    0
SMALL
NO_CHARGES


@<TRIPOS>ATOM
   1 C1             0.9790    -1.0307    -0.0292 C.3     
   2 N2            -0.0315     0.0361    -0.0090 N.3     
   3 C3             0.2192     0.9742     1.0941 C.3     
   4 C4             1.6085     1.5942     0.9270 C.3     
   5 N5             2.6190     0.5274     0.9068 N.3     
   6 C6             2.3682    -0.4107    -0.1962 C.3     
   7 C7            -1.3178    -0.4956     0.0700 C.ar    
   8 C8            -2.1076    -0.2916     1.1988 C.ar    
   9 C9            -3.3761    -0.8341     1.2385 C.ar    
  10 N10           -3.8455    -1.5387     0.2263 N.ar    
  11 C11           -3.1326    -1.7572    -0.8628 C.ar    
  12 C12           -1.8522    -1.2438    -0.9858 C.ar    
  13 N13           -1.0996    -1.4783    -2.1444 N.am    
  14 C14           -1.2299    -2.6440    -2.8082 C.2     
  15 C15           -0.5401    -2.8406    -4.0855 C.2     
  16 O16           -1.9210    -3.5336    -2.3464 O.2     
  17 C17           -0.6331    -4.0074    -4.8113 C.2     
  18 S18            0.3408    -3.8225    -6.2678 S.3     
  19 C19            0.7874    -2.1935    -5.7735 C.2     
  20 N20            0.2256    -1.9023    -4.6446 N.2     
  21 C21            1.6707    -1.2888    -6.5382 C.ar    
  22 C22            2.2210    -1.7059    -7.7533 C.ar    
  23 N23           -1.3613    -5.1261    -4.4588 N.pl3   
  24 C24            3.0459    -0.8536    -8.4629 C.ar    
  25 C25            3.3272     0.4091    -7.9734 C.ar    
  26 C26            2.7867     0.8290    -6.7714 C.ar    
  27 C27            1.9554    -0.0094    -6.0530 C.ar    
  28 F28            1.4281     0.4026    -4.8793 F       
  29 F29            1.9478    -2.9390    -8.2328 F       
  30 H30            0.9392    -1.5871     0.9073 H       
  31 H31            0.7792    -1.7051    -0.8619 H       
  32 H32           -0.5345     1.7615     1.0803 H       
  33 H33            0.1708     0.4407     2.0433 H       
  34 H34            1.6482     2.1506    -0.0095 H       
  35 H35            1.8082     2.2686     1.7598 H       
  36 H36            3.5500     0.9122     0.8497 H       
  37 H37            3.1219    -1.1980    -0.1824 H       
  38 H38            2.4166     0.1229    -1.1455 H       
  39 H39           -1.7322     0.2832     2.0324 H       
  40 H40           -3.9935    -0.6800     2.1111 H       
  41 H41           -3.5541    -2.3394    -1.6689 H       
  42 H42           -0.4848    -0.8017    -2.4686 H       
  43 H43           -1.8687    -5.1339    -3.6322 H       
  44 H44           -1.3654    -5.9043    -5.0379 H       
  45 H45            3.4722    -1.1746    -9.4019 H       
  46 H46            3.9724     1.0705    -8.5325 H       
  47 H47            3.0115     1.8162    -6.3954 H       
@<TRIPOS>BOND
   1    1    2 1
   2    1    6 1
   3    1   30 1
   4    1   31 1
   5    2    3 1
   6    2    7 1
   7    3    4 1
   8    3   32 1
   9    3   33 1
  10    4    5 1
  11    4   34 1
  12    4   35 1
  13    5    6 1
  14    5   36 1
  15    6   37 1
  16    6   38 1
  17    7    8 ar
  18    7   12 ar
  19    8    9 ar
  20    8   39 1
  21    9   10 ar
  22    9   40 1
  23   10   11 ar
  24   11   12 ar
  25   11   41 1
  26   12   13 1
  27   13   14 am
  28   13   42 1
  29   14   15 1
  30   14   16 2
  31   15   17 2
  32   15   20 1
  33   17   18 1
  34   17   23 1
  35   18   19 1
  36   19   20 2
  37   19   21 1
  38   21   22 ar
  39   21   27 ar
  40   22   24 ar
  41   22   29 1
  42   23   43 1
  43   23   44 1
  44   24   25 ar
  45   24   45 1
  46   25   26 ar
  47   25   46 1
  48   26   27 ar
  49   26   47 1
  50   27   28 1

#	End of record

