#	Name: ASD07930377
#	Creating user name:	WinNT
#	Creation time:	15. 06. 2019 21:12

#	Modifying user name:	WinNT
#	Modification time:	15. 06. 2019 21:12

#	Program:	/corina/corina34_cracker 3.40 0067  02.08.2006

@<TRIPOS>MOLECULE
ASD07930377
  23   24    0    0    0
SMALL
NO_CHARGES


@<TRIPOS>ATOM
   1 C1            -0.0169     1.3921     0.0097 C.ar    
   2 C2             0.0021    -0.0041     0.0020 C.ar    
   3 N3             1.1589    -0.6526    -0.0126 N.ar    
   4 C4             2.2940     0.0218    -0.0198 C.ar    
   5 C5             2.2757     1.4164    -0.0122 C.ar    
   6 N6             1.1128     2.0661     0.0025 N.ar    
   7 C7             3.5458     2.1730    -0.0198 C.2     
   8 O8             4.6058     1.5801    -0.0327 O.2     
   9 O9             3.5275     3.5199    -0.0124 O.3     
  10 N10           -1.1961    -0.7170     0.0101 N.pl3   
  11 C11           -1.3230    -2.0704     0.0041 C.2     
  12 C12           -2.6445    -2.3574     0.0158 C.2     
  13 C13           -3.3492    -1.1476     0.0293 C.2     
  14 N14           -2.4842    -0.1665     0.0320 N.2     
  15 C15           -3.2518    -3.7366     0.0144 C.3     
  16 H16           -0.9596     1.9190     0.0170 H       
  17 H17            3.2361    -0.5061    -0.0313 H       
  18 H18            4.3831     3.9706    -0.0178 H       
  19 H19           -0.5148    -2.7867    -0.0077 H       
  20 H20           -4.4240    -1.0424     0.0406 H       
  21 H21           -3.3879    -4.0746     1.0417 H       
  22 H22           -4.2178    -3.7078    -0.4897 H       
  23 H23           -2.5888    -4.4250    -0.5097 H       
@<TRIPOS>BOND
   1    1    2 ar
   2    1    6 ar
   3    1   16 1
   4    2    3 ar
   5    2   10 1
   6    3    4 ar
   7    4    5 ar
   8    4   17 1
   9    5    6 ar
  10    5    7 1
  11    7    8 2
  12    7    9 1
  13    9   18 1
  14   10   11 1
  15   10   14 1
  16   11   12 2
  17   11   19 1
  18   12   13 1
  19   12   15 1
  20   13   14 2
  21   13   20 1
  22   15   21 1
  23   15   22 1
  24   15   23 1

#	End of record

