#	Name: ASD05730048
#	Creating user name:	WinNT
#	Creation time:	15. 06. 2019 21:02

#	Modifying user name:	WinNT
#	Modification time:	15. 06. 2019 21:02

#	Program:	/corina/corina34_cracker 3.40 0067  02.08.2006

@<TRIPOS>MOLECULE
ASD05730048
  89   95    0    0    0
SMALL
NO_CHARGES


@<TRIPOS>ATOM
   1 O1             0.1356     1.2407     0.8711 O.3     
   2 C2             0.1113    -0.1000     0.6449 C.ar    
   3 C3             1.1003    -0.9115     1.1811 C.ar    
   4 C4             1.0762    -2.2731     0.9519 C.ar    
   5 C5             0.0616    -2.8298     0.1844 C.ar    
   6 C6            -0.9280    -2.0167    -0.3521 C.ar    
   7 C7            -0.9057    -0.6560    -0.1172 C.ar    
   8 N8             0.0368    -4.2102    -0.0489 N.pl3   
   9 C9             1.2149    -4.8924    -0.2829 C.ar    
  10 N10            1.1775    -6.2119    -0.3897 N.ar    
  11 C11            2.2895    -6.9024    -0.6150 C.ar    
  12 C12            3.5092    -6.2022    -0.7379 C.ar    
  13 C13            3.4959    -4.8045    -0.6169 C.ar    
  14 N14            2.3431    -4.2003    -0.3979 N.ar    
  15 N15            2.2600    -8.2696    -0.7266 N.am    
  16 C16            3.3909    -8.9649    -0.9547 C.2     
  17 C17            4.6727    -8.2694    -1.0873 C.2     
  18 C18            4.7118    -6.9051    -0.9783 C.2     
  19 C19            0.9858    -8.9805    -0.5958 C.3     
  20 O20            3.3471   -10.1784    -1.0507 O.2     
  21 C21            5.9162    -9.0351    -1.3378 C.ar    
  22 C22            6.8384    -9.2280    -0.3102 C.ar    
  23 C23            1.1482     1.7317     1.7518 C.3     
  24 C24            2.4421     1.9587     0.9667 C.3     
  25 C25            6.1664    -9.5713    -2.6020 C.ar    
  26 C26            7.3271   -10.2843    -2.8285 C.ar    
  27 C27            8.2402   -10.4673    -1.8054 C.ar    
  28 C28            7.9947    -9.9426    -0.5493 C.ar    
  29 S29            9.7190   -11.3782    -2.1020 S.o2    
  30 C30           10.9419   -10.2279    -2.6366 C.ar    
  31 O31           10.1508   -11.8647    -0.8386 O.2     
  32 O32            9.4528   -12.2254    -3.2113 O.2     
  33 N33            3.4768     2.4832     1.8670 N.3     
  34 C34            3.0807     3.7787     2.4336 C.3     
  35 C35            1.8059     3.6061     3.2625 C.3     
  36 C36            0.6914     3.0572     2.3675 C.3     
  37 Cl37           5.0210    -9.3428    -3.8863 Cl      
  38 C38           11.7559    -9.6039    -1.7099 C.ar    
  39 C39           12.7153    -8.7013    -2.1294 C.ar    
  40 C40           12.8609    -8.4232    -3.4756 C.ar    
  41 C41           12.0475    -9.0479    -4.4024 C.ar    
  42 C42           11.0910    -9.9536    -3.9833 C.ar    
  43 C43            4.7714     2.5829     1.1798 C.3     
  44 C44            0.3290    -9.1073    -1.9719 C.3     
  45 N45           -0.9487    -9.8201    -1.8408 N.3     
  46 C46           -1.7189    -9.7553    -3.0914 C.3     
  47 C47           -1.7347    -9.2904    -0.7170 C.3     
  48 C48           -3.0276   -10.0986    -0.5797 C.3     
  49 O49           -3.7477   -10.0500    -1.8144 O.3     
  50 C50           -3.0120   -10.5589    -2.9303 C.3     
  51 H51            1.8894    -0.4784     1.7777 H       
  52 H52            1.8465    -2.9048     1.3692 H       
  53 H53           -1.7172    -2.4488    -0.9494 H       
  54 H54           -1.6753    -0.0235    -0.5343 H       
  55 H55           -0.8077    -4.6874    -0.0462 H       
  56 H56            4.4092    -4.2347    -0.7046 H       
  57 H57            5.6474    -6.3741    -1.0739 H       
  58 H58            1.1646    -9.9744    -0.1856 H       
  59 H59            0.3267    -8.4251     0.0715 H       
  60 H60            6.6485    -8.8187     0.6710 H       
  61 H61            1.3259     1.0041     2.5436 H       
  62 H62            2.7778     1.0140     0.5389 H       
  63 H63            2.2600     2.6755     0.1659 H       
  64 H64            7.5221   -10.7002    -3.8059 H       
  65 H65            8.7117   -10.0886     0.2450 H       
  66 H66            3.8802     4.1560     3.0712 H       
  67 H67            2.8957     4.4870     1.6260 H       
  68 H68            1.9941     2.9085     4.0786 H       
  69 H69            1.5034     4.5707     3.6701 H       
  70 H70            0.4761     3.7725     1.5737 H       
  71 H71           -0.2062     2.8918     2.9634 H       
  72 H72           11.6421    -9.8212    -0.6581 H       
  73 H73           13.3508    -8.2133    -1.4053 H       
  74 H74           13.6100    -7.7175    -3.8032 H       
  75 H75           12.1611    -8.8303    -5.4541 H       
  76 H76           10.4555   -10.4417    -4.7074 H       
  77 H77            4.6786     3.2536     0.3256 H       
  78 H78            5.5196     2.9739     1.8692 H       
  79 H79            5.0765     1.5950     0.8345 H       
  80 H80            0.1502    -8.1135    -2.3822 H       
  81 H81            0.9881    -9.6627    -2.6392 H       
  82 H82           -1.9614    -8.7167    -3.3161 H       
  83 H83           -1.1280   -10.1760    -3.9050 H       
  84 H84           -1.1552    -9.3717     0.2027 H       
  85 H85           -1.9774    -8.2443    -0.9037 H       
  86 H86           -2.7859   -11.1341    -0.3398 H       
  87 H87           -3.6399    -9.6735     0.2157 H       
  88 H88           -3.6130   -10.4667    -3.8349 H       
  89 H89           -2.7698   -11.6077    -2.7588 H       
@<TRIPOS>BOND
   1    1    2 1
   2    1   23 1
   3    2    3 ar
   4    2    7 ar
   5    3    4 ar
   6    3   51 1
   7    4    5 ar
   8    4   52 1
   9    5    6 ar
  10    5    8 1
  11    6    7 ar
  12    6   53 1
  13    7   54 1
  14    8    9 1
  15    8   55 1
  16    9   10 ar
  17    9   14 ar
  18   10   11 ar
  19   11   12 ar
  20   11   15 1
  21   12   13 ar
  22   12   18 1
  23   13   14 ar
  24   13   56 1
  25   15   16 am
  26   15   19 1
  27   16   17 1
  28   16   20 2
  29   17   18 2
  30   17   21 1
  31   18   57 1
  32   19   44 1
  33   19   58 1
  34   19   59 1
  35   21   22 ar
  36   21   25 ar
  37   22   28 ar
  38   22   60 1
  39   23   24 1
  40   23   36 1
  41   23   61 1
  42   24   33 1
  43   24   62 1
  44   24   63 1
  45   25   26 ar
  46   25   37 1
  47   26   27 ar
  48   26   64 1
  49   27   28 ar
  50   27   29 1
  51   28   65 1
  52   29   30 1
  53   29   31 2
  54   29   32 2
  55   30   38 ar
  56   30   42 ar
  57   33   34 1
  58   33   43 1
  59   34   35 1
  60   34   66 1
  61   34   67 1
  62   35   36 1
  63   35   68 1
  64   35   69 1
  65   36   70 1
  66   36   71 1
  67   38   39 ar
  68   38   72 1
  69   39   40 ar
  70   39   73 1
  71   40   41 ar
  72   40   74 1
  73   41   42 ar
  74   41   75 1
  75   42   76 1
  76   43   77 1
  77   43   78 1
  78   43   79 1
  79   44   45 1
  80   44   80 1
  81   44   81 1
  82   45   46 1
  83   45   47 1
  84   46   50 1
  85   46   82 1
  86   46   83 1
  87   47   48 1
  88   47   84 1
  89   47   85 1
  90   48   49 1
  91   48   86 1
  92   48   87 1
  93   49   50 1
  94   50   88 1
  95   50   89 1

#	End of record

