#	Name: ASD01814647
#	Creating user name:	WinNT
#	Creation time:	15. 06. 2019 19:32

#	Modifying user name:	WinNT
#	Modification time:	15. 06. 2019 19:32

#	Program:	/corina/corina34_cracker 3.40 0067  02.08.2006

@<TRIPOS>MOLECULE
ASD01814647
  45   48    0    0    0
SMALL
NO_CHARGES


@<TRIPOS>ATOM
   1 C1            -0.0444     1.3529    -0.5653 C.2     
   2 N2            -1.3564     1.7097    -0.7426 N.pl3   
   3 N3            -2.1215     0.5392    -0.7133 N.2     
   4 C4            -1.3198    -0.4898    -0.5269 C.2     
   5 C5            -0.0172    -0.0297    -0.4293 C.2     
   6 C6            -1.3145    -1.9917    -0.3813 C.3     
   7 N7             0.0755    -2.4167    -0.1888 N.am    
   8 C8             0.9019    -1.2058    -0.2209 C.3     
   9 C9            -1.6858     3.0248    -0.9050 C.2     
  10 C10           -0.7028     3.9576    -0.8877 C.2     
  11 C11            0.6277     3.5543    -0.7040 C.2     
  12 N12            0.9193     2.2835    -0.5548 N.2     
  13 C13            0.5113    -3.6807    -0.0192 C.2     
  14 C14           -0.4586    -4.7870     0.0903 C.ar    
  15 O15            1.7039    -3.9093     0.0435 O.2     
  16 C16           -0.3191    -5.7495     1.0998 C.ar    
  17 C17           -1.2365    -6.7850     1.1933 C.ar    
  18 C18           -2.2824    -6.8665     0.2952 C.ar    
  19 C19           -2.4235    -5.9177    -0.7040 C.ar    
  20 C20           -1.5244    -4.8782    -0.8078 C.ar    
  21 O21            0.7091    -5.6685     1.9810 O.3     
  22 C22            0.7868    -6.6849     2.9824 C.3     
  23 F23           -0.3765    -6.6642     3.7592 F       
  24 F24            0.9155    -7.9355     2.3686 F       
  25 C25           -1.0368     5.4164    -1.0650 C.3     
  26 C26            1.7279     4.5839    -0.6832 C.3     
  27 C27           -3.1230     3.4334    -1.1014 C.3     
  28 F28            1.8976    -6.4502     3.7999 F       
  29 H29           -1.9123    -2.2812     0.4829 H       
  30 H30           -1.7198    -2.4516    -1.2826 H       
  31 H31            1.6163    -1.2665    -1.0419 H       
  32 H32            1.4329    -1.0968     0.7248 H       
  33 H33           -1.1328    -7.5291     1.9692 H       
  34 H34           -2.9944    -7.6749     0.3721 H       
  35 H35           -3.2443    -5.9902    -1.4021 H       
  36 H36           -1.6410    -4.1380    -1.5855 H       
  37 H37           -1.2284     5.8663    -0.0909 H       
  38 H38           -0.1993     5.9255    -1.5420 H       
  39 H39           -1.9243     5.5126    -1.6905 H       
  40 H40            1.8824     4.9301     0.3387 H       
  41 H41            2.6491     4.1390    -1.0593 H       
  42 H42            1.4479     5.4275    -1.3142 H       
  43 H43           -3.5806     3.6297    -0.1318 H       
  44 H44           -3.1640     4.3355    -1.7119 H       
  45 H45           -3.6637     2.6306    -1.6026 H       
@<TRIPOS>BOND
   1    1    5 2
   2    1   12 1
   3    1    2 1
   4    2    3 1
   5    2    9 1
   6    3    4 2
   7    4    6 1
   8    4    5 1
   9    5    8 1
  10    6    7 1
  11    6   29 1
  12    6   30 1
  13    7    8 1
  14    7   13 am
  15    8   31 1
  16    8   32 1
  17    9   10 2
  18    9   27 1
  19   10   11 1
  20   10   25 1
  21   11   12 2
  22   11   26 1
  23   13   14 1
  24   13   15 2
  25   14   16 ar
  26   14   20 ar
  27   16   17 ar
  28   16   21 1
  29   17   18 ar
  30   17   33 1
  31   18   19 ar
  32   18   34 1
  33   19   20 ar
  34   19   35 1
  35   20   36 1
  36   21   22 1
  37   22   24 1
  38   22   28 1
  39   22   23 1
  40   25   37 1
  41   25   38 1
  42   25   39 1
  43   26   40 1
  44   26   41 1
  45   26   42 1
  46   27   43 1
  47   27   44 1
  48   27   45 1

#	End of record

