#	Name: ASD01230147
#	Creating user name:	WinNT
#	Creation time:	15. 06. 2019 19:11

#	Modifying user name:	WinNT
#	Modification time:	15. 06. 2019 19:11

#	Program:	/corina/corina34_cracker 3.40 0067  02.08.2006

@<TRIPOS>MOLECULE
ASD01230147
  41   43    0    0    0
SMALL
NO_CHARGES


@<TRIPOS>ATOM
   1 C1             0.0507     0.2344     0.4523 C.3     
   2 C2             0.3891    -1.1279     0.9958 C.3     
   3 O3             1.2499     0.9176     0.1752 O.3     
   4 C4             2.1481     0.5664     1.2549 C.3     
   5 C5             1.6574    -0.7856     1.8432 C.3     
   6 C6             1.9528     1.5864     2.3967 C.3     
   7 N7             1.9590     0.7723     3.6385 N.3     
   8 C8             1.1973    -0.4503     3.2761 C.3     
   9 C9             3.6008     0.4874     0.7812 C.3     
  10 O10            0.8562    -2.0089    -0.0337 O.3     
  11 C11           -0.0891    -2.4884    -0.9519 C.3     
  12 C12           -0.6637    -1.3828    -1.8067 C.3     
  13 C13           -1.7177    -0.5817    -1.1269 C.3     
  14 C14           -1.2166     0.5418    -0.2420 C.3     
  15 O15           -2.2155     0.8304     0.7383 O.3     
  16 O16           -2.5051    -1.4653    -0.3260 O.3     
  17 C17            3.0875     2.5780     2.4140 C.2     
  18 O18            4.0545     2.3775     3.1101 O.2     
  19 O19            3.0238     3.6841     1.6562 O.3     
  20 C20            3.6946    -0.4460    -0.3982 C.2     
  21 O21            2.6880    -0.8767    -0.9093 O.2     
  22 O22            4.8963    -0.7990    -0.8809 O.3     
  23 H23           -0.1637     0.7163     1.4062 H       
  24 H24           -0.4229    -1.5610     1.5798 H       
  25 H25            2.4162    -1.5671     1.8042 H       
  26 H26            0.9989     2.1020     2.2858 H       
  27 H27            2.9015     0.5423     3.9154 H       
  28 H28            0.1260    -0.2499     3.2942 H       
  29 H29            1.4436    -1.2666     3.9551 H       
  30 H30            3.9415     1.4800     0.4869 H       
  31 H31            4.2273     0.1135     1.5911 H       
  32 H32            0.3877    -3.2246    -1.5990 H       
  33 H33           -0.8995    -2.9714    -0.4060 H       
  34 H34            0.1455    -0.7144    -2.1008 H       
  35 H35           -1.0898    -1.8252    -2.7071 H       
  36 H36           -2.3659    -0.1518    -1.8906 H       
  37 H37           -1.0701     1.4298    -0.8568 H       
  38 H38           -3.0639     1.1069     0.3658 H       
  39 H39           -2.9432    -2.1661    -0.8281 H       
  40 H40            3.7757     4.2906     1.7006 H       
  41 H41            4.9059    -1.3999    -1.6385 H       
@<TRIPOS>BOND
   1    1    2 1
   2    1    3 1
   3    1   14 1
   4    1   23 1
   5    2   10 1
   6    2    5 1
   7    2   24 1
   8    3    4 1
   9    4    5 1
  10    4    9 1
  11    4    6 1
  12    5    8 1
  13    5   25 1
  14    6    7 1
  15    6   17 1
  16    6   26 1
  17    7    8 1
  18    7   27 1
  19    8   28 1
  20    8   29 1
  21    9   20 1
  22    9   30 1
  23    9   31 1
  24   10   11 1
  25   11   12 1
  26   11   32 1
  27   11   33 1
  28   12   13 1
  29   12   34 1
  30   12   35 1
  31   13   14 1
  32   13   16 1
  33   13   36 1
  34   14   15 1
  35   14   37 1
  36   15   38 1
  37   16   39 1
  38   17   18 2
  39   17   19 1
  40   19   40 1
  41   20   21 2
  42   20   22 1
  43   22   41 1

#	End of record

