#	Name: ASD05230003
#	Creating user name:	WinNT
#	Creation time:	15. 06. 2019 20:57

#	Modifying user name:	WinNT
#	Modification time:	15. 06. 2019 20:57

#	Program:	/corina/corina34_cracker 3.40 0067  02.08.2006

@<TRIPOS>MOLECULE
ASD05230003
  32   34    0    0    0
SMALL
NO_CHARGES


@<TRIPOS>ATOM
   1 C1             0.1280     1.4411    -0.1183 C.3     
   2 O2             0.0412    -0.0058    -0.0320 O.3     
   3 C3             0.9548    -0.6285     0.7375 C.2     
   4 O4             1.8008     0.0193     1.3204 O.2     
   5 C5             0.9278    -2.1011     0.8725 C.ar    
   6 N6            -0.0190    -2.7568     0.2128 N.ar    
   7 C7            -0.1069    -4.0738     0.2843 C.ar    
   8 C8            -1.0847    -4.9360    -0.3787 C.ar    
   9 N9            -2.0752    -4.4085    -1.1982 N.pl3   
  10 C10           -0.9834    -6.2991    -0.1573 C.ar    
  11 C11           -0.0104    -6.8892     0.6550 C.ar    
  12 C12            0.9461    -6.1166     1.3112 C.ar    
  13 C13            0.8660    -4.7554     1.1059 C.ar    
  14 C14            1.9113    -4.0661     1.8380 C.ar    
  15 C15            1.9111    -2.6939     1.6853 C.ar    
  16 C16            2.6272    -5.1553     2.5046 C.2     
  17 O17            3.5926    -5.0328     3.2359 O.2     
  18 N18            2.0261    -6.3285     2.1657 N.am    
  19 C19            2.4592    -7.6455     2.6389 C.3     
  20 N20            0.0028    -8.2708     0.8114 N.pl3   
  21 H21            1.0977     1.7230    -0.5287 H       
  22 H22           -0.6638     1.8145    -0.7676 H       
  23 H23            0.0155     1.8718     0.8767 H       
  24 H24           -2.1280    -3.4504    -1.3400 H       
  25 H25           -2.7138    -4.9984    -1.6283 H       
  26 H26           -1.7000    -6.9460    -0.6414 H       
  27 H27            2.6483    -2.0853     2.1879 H       
  28 H28            1.8730    -7.9282     3.5133 H       
  29 H29            2.3116    -8.3820     1.8490 H       
  30 H30            3.5151    -7.6063     2.9065 H       
  31 H31           -0.5867    -8.8251     0.2764 H       
  32 H32            0.6016    -8.6803     1.4553 H       
@<TRIPOS>BOND
   1    1    2 1
   2    1   21 1
   3    1   22 1
   4    1   23 1
   5    2    3 1
   6    3    4 2
   7    3    5 1
   8    5    6 ar
   9    5   15 ar
  10    6    7 ar
  11    7    8 ar
  12    7   13 ar
  13    8    9 1
  14    8   10 ar
  15    9   24 1
  16    9   25 1
  17   10   11 ar
  18   10   26 1
  19   11   12 ar
  20   11   20 1
  21   12   13 ar
  22   12   18 1
  23   13   14 ar
  24   14   15 ar
  25   14   16 1
  26   15   27 1
  27   16   17 2
  28   16   18 am
  29   18   19 1
  30   19   28 1
  31   19   29 1
  32   19   30 1
  33   20   31 1
  34   20   32 1

#	End of record

