#	Name: ASD03092422
#	Creating user name:	WinNT
#	Creation time:	15. 06. 2019 20:32

#	Modifying user name:	WinNT
#	Modification time:	15. 06. 2019 20:32

#	Program:	/corina/corina34_cracker 3.40 0067  02.08.2006

@<TRIPOS>MOLECULE
ASD03092422
  58   60    0    0    0
SMALL
NO_CHARGES


@<TRIPOS>ATOM
   1 C1             0.3377     2.0153     0.1445 C.2     
   2 C2             0.5540     0.5261     0.2242 C.3     
   3 C3             2.0547     0.2278     0.2208 C.3     
   4 C4             2.2743    -1.2842     0.3018 C.3     
   5 O5             1.2900     2.7644     0.0902 O.2     
   6 N6            -0.9141     2.5145     0.1278 N.am    
   7 F7             1.6734    -1.9024    -0.8000 F       
   8 F8             3.6465    -1.5569     0.2986 F       
   9 F9             1.7038    -1.7758     1.4808 F       
  10 C10           -1.1244     3.9623     0.0503 C.3     
  11 S11           -4.9835     4.7562    -0.6387 S.3     
  12 C12           -4.5799     4.6083     1.0157 C.2     
  13 N13           -3.3134     4.3515     1.1494 N.2     
  14 C14           -2.6025     4.2557     0.0469 C.2     
  15 C15           -3.3091     4.4424    -1.0876 C.2     
  16 C16           -2.5485     5.3138    -4.6606 C.ar    
  17 C17           -3.0708     5.4006    -3.3883 C.ar    
  18 C18           -2.7735     4.3920    -2.4620 C.ar    
  19 C19           -1.9532     3.3345    -2.8772 C.ar    
  20 C20           -1.4749     3.3281    -4.1696 C.ar    
  21 N21           -1.7794     4.2994    -5.0103 N.ar    
  22 C22           -0.5917     2.1969    -4.6294 C.3     
  23 C23           -2.8652     6.3883    -5.6688 C.3     
  24 N24           -5.4737     4.7431     2.0624 N.3     
  25 C25           -6.8270     5.0318     1.5657 C.3     
  26 C26           -7.7695     5.2321     2.7555 C.3     
  27 O27           -7.7344     4.0684     3.5861 O.3     
  28 C28           -6.4316     3.7583     4.0879 C.3     
  29 C29           -5.4755     3.5431     2.9116 C.3     
  30 C30           -6.4991     2.4835     4.9312 C.3     
  31 C31           -9.1951     5.4535     2.2462 C.3     
  32 H32            0.1096     0.1431     1.1429 H       
  33 H33            0.0859     0.0444    -0.6342 H       
  34 H34            2.4991     0.6108    -0.6978 H       
  35 H35            2.5228     0.7094     1.0792 H       
  36 H36           -1.6758     1.9152     0.1672 H       
  37 H37           -0.6604     4.4434     0.9113 H       
  38 H38           -0.6757     4.3460    -0.8660 H       
  39 H39           -3.6989     6.2336    -3.1092 H       
  40 H40           -1.6994     2.5369    -2.1947 H       
  41 H41           -1.2085     1.4000    -5.0448 H       
  42 H42            0.0956     2.5601    -5.3935 H       
  43 H43           -0.0232     1.8125    -3.7826 H       
  44 H44           -2.1141     7.1759    -5.6083 H       
  45 H45           -2.8615     5.9589    -6.6706 H       
  46 H46           -3.8488     6.8071    -5.4566 H       
  47 H47           -6.8069     5.9383     0.9607 H       
  48 H48           -7.1781     4.1966     0.9598 H       
  49 H49           -7.4491     6.1002     3.3315 H       
  50 H50           -6.0723     4.5835     4.7026 H       
  51 H51           -5.8051     2.6841     2.3272 H       
  52 H52           -4.4690     3.3627     3.2891 H       
  53 H53           -6.8566     1.6586     4.3149 H       
  54 H54           -5.5058     2.2476     5.3133 H       
  55 H55           -7.1828     2.6360     5.7663 H       
  56 H56           -9.5150     4.5840     1.6720 H       
  57 H57           -9.8657     5.5960     3.0937 H       
  58 H58           -9.2204     6.3383     1.6101 H       
@<TRIPOS>BOND
   1    1    2 1
   2    1    5 2
   3    1    6 am
   4    2    3 1
   5    2   32 1
   6    2   33 1
   7    3    4 1
   8    3   34 1
   9    3   35 1
  10    4    7 1
  11    4    8 1
  12    4    9 1
  13    6   10 1
  14    6   36 1
  15   10   14 1
  16   10   37 1
  17   10   38 1
  18   11   12 1
  19   11   15 1
  20   12   13 2
  21   12   24 1
  22   13   14 1
  23   14   15 2
  24   15   18 1
  25   16   17 ar
  26   16   21 ar
  27   16   23 1
  28   17   18 ar
  29   17   39 1
  30   18   19 ar
  31   19   20 ar
  32   19   40 1
  33   20   21 ar
  34   20   22 1
  35   22   41 1
  36   22   42 1
  37   22   43 1
  38   23   44 1
  39   23   45 1
  40   23   46 1
  41   24   25 1
  42   24   29 1
  43   25   26 1
  44   25   47 1
  45   25   48 1
  46   26   27 1
  47   26   31 1
  48   26   49 1
  49   27   28 1
  50   28   29 1
  51   28   30 1
  52   28   50 1
  53   29   51 1
  54   29   52 1
  55   30   53 1
  56   30   54 1
  57   30   55 1
  58   31   56 1
  59   31   57 1
  60   31   58 1

#	End of record

