#	Name: ASD01382002
#	Creating user name:	WinNT
#	Creation time:	15. 06. 2019 19:16

#	Modifying user name:	WinNT
#	Modification time:	15. 06. 2019 19:16

#	Program:	/corina/corina34_cracker 3.40 0067  02.08.2006

@<TRIPOS>MOLECULE
ASD01382002
  44   48    0    0    0
SMALL
NO_CHARGES


@<TRIPOS>ATOM
   1 C1            -0.0167     1.3830     0.0096 C.ar    
   2 C2             0.0021    -0.0041     0.0020 C.ar    
   3 C3             1.2033    -0.6652    -0.0130 C.ar    
   4 C4             2.3753     0.0957    -0.0202 C.ar    
   5 C5             2.2858     1.5006    -0.0118 C.ar    
   6 N6             1.0947     2.0865     0.0028 N.ar    
   7 C7             3.8049    -0.2291    -0.0356 C.2     
   8 N8             4.4650     0.9043    -0.0359 N.2     
   9 N9             3.5697     1.9780    -0.0215 N.pl3   
  10 C10            4.3950    -1.5871    -0.0478 C.ar    
  11 C11            3.9461     3.3938    -0.0176 C.3     
  12 C12            4.0622     3.8867    -1.4369 C.ar    
  13 C13            2.9359     4.3250    -2.1120 C.ar    
  14 C14            3.0440     4.7777    -3.4163 C.ar    
  15 C15            4.2757     4.7914    -4.0424 C.ar    
  16 C16            5.4000     4.3534    -3.3671 C.ar    
  17 C17            5.2941     3.9067    -2.0633 C.ar    
  18 N18            3.5908    -2.6421    -0.0450 N.ar    
  19 C19            4.0816    -3.8719    -0.0557 C.ar    
  20 C20            5.4514    -4.0534    -0.0698 C.ar    
  21 C21            6.2742    -2.9237    -0.0725 C.ar    
  22 N22            5.7151    -1.7189    -0.0667 N.ar    
  23 F23            1.7320     4.3108    -1.4990 F       
  24 N24            7.6530    -3.0585    -0.0861 N.pl3   
  25 C25            6.0448    -5.4386    -0.0817 C.3     
  26 C26            5.7108    -6.3603     1.0929 C.3     
  27 C27            5.0877    -6.6155    -0.2810 C.3     
  28 H28           -0.9663     1.8975     0.0169 H       
  29 H29           -0.9239    -0.5599     0.0083 H       
  30 H30            1.2426    -1.7445    -0.0189 H       
  31 H31            3.1842     3.9709     0.5063 H       
  32 H32            4.9043     3.5136     0.4881 H       
  33 H33            2.1659     5.1195    -3.9440 H       
  34 H34            4.3602     5.1440    -5.0597 H       
  35 H35            6.3622     4.3641    -3.8574 H       
  36 H36            6.1730     3.5648    -1.5368 H       
  37 H37            3.4183    -4.7241    -0.0529 H       
  38 H38            8.0539    -3.9418    -0.0939 H       
  39 H39            8.2175    -2.2697    -0.0879 H       
  40 H40            7.0405    -5.5197    -0.5178 H       
  41 H41            6.4866    -7.0481     1.4293 H       
  42 H42            5.0618    -5.9648     1.8743 H       
  43 H43            4.0288    -6.3878    -0.4035 H       
  44 H44            5.4535    -7.4712    -0.8484 H       
@<TRIPOS>BOND
   1    1    2 ar
   2    1    6 ar
   3    1   28 1
   4    2    3 ar
   5    2   29 1
   6    3    4 ar
   7    3   30 1
   8    4    5 ar
   9    4    7 1
  10    5    6 ar
  11    5    9 1
  12    7    8 2
  13    7   10 1
  14    8    9 1
  15    9   11 1
  16   10   18 ar
  17   10   22 ar
  18   11   12 1
  19   11   31 1
  20   11   32 1
  21   12   13 ar
  22   12   17 ar
  23   13   14 ar
  24   13   23 1
  25   14   15 ar
  26   14   33 1
  27   15   16 ar
  28   15   34 1
  29   16   17 ar
  30   16   35 1
  31   17   36 1
  32   18   19 ar
  33   19   20 ar
  34   19   37 1
  35   20   21 ar
  36   20   25 1
  37   21   22 ar
  38   21   24 1
  39   24   38 1
  40   24   39 1
  41   25   26 1
  42   25   27 1
  43   25   40 1
  44   26   27 1
  45   26   41 1
  46   26   42 1
  47   27   43 1
  48   27   44 1

#	End of record

