#	Name: ASD02320023
#	Creating user name:	WinNT
#	Creation time:	15. 06. 2019 20:20

#	Modifying user name:	WinNT
#	Modification time:	15. 06. 2019 20:20

#	Program:	/corina/corina34_cracker 3.40 0067  02.08.2006

@<TRIPOS>MOLECULE
ASD02320023
  55   57    0    0    0
SMALL
NO_CHARGES


@<TRIPOS>ATOM
   1 C1            -0.0168     1.3874     0.0097 C.ar    
   2 C2             0.0021    -0.0041     0.0020 C.ar    
   3 C3            -1.1901    -0.7046     0.0022 C.ar    
   4 C4            -2.4052    -0.0313     0.0096 C.ar    
   5 C5            -2.4227     1.3462     0.0332 C.ar    
   6 C6            -1.2284     2.0540     0.0306 C.ar    
   7 C7            -3.6639    -0.8596    -0.0302 C.3     
   8 N8            -4.8266    -0.0353     0.3144 N.am    
   9 C9            -4.8722     1.2281    -0.2264 C.2     
  10 C10           -3.7069     2.1360     0.0886 C.3     
  11 C11           -5.8035    -0.4938     1.1218 C.2     
  12 C12           -6.9825     0.3847     1.4521 C.3     
  13 O13           -5.7336    -1.6152     1.5832 O.2     
  14 C14           -7.9229    -0.3589     2.3652 C.ar    
  15 C15           -7.7062    -0.3560     3.7354 C.ar    
  16 C16           -9.0036    -1.0385     1.8384 C.ar    
  17 C17           -9.8692    -1.7230     2.6789 C.ar    
  18 C18           -9.6494    -1.7249     4.0481 C.ar    
  19 C19           -8.5715    -1.0403     4.5756 C.ar    
  20 O20            1.1491     2.0874     0.0023 O.3     
  21 S21            1.6666     2.4136    -1.3914 S.o2    
  22 O22            2.9682     2.9570    -1.2192 O.2     
  23 O23            1.4009     1.2723    -2.1953 O.2     
  24 O24            0.8008     3.5379    -1.9417 O.3     
  25 Na25           1.1911     5.3215    -1.1503 Du      
  26 O26          -10.9336    -2.3918     2.1603 O.3     
  27 S27          -10.6375    -3.8398     1.7968 S.o2    
  28 O28          -11.7768    -4.3185     1.0953 O.2     
  29 O29           -9.3254    -3.8564     1.2515 O.2     
  30 O30          -10.5721    -4.6266     3.0980 O.3     
  31 Na31         -12.3492    -4.9764     3.9226 Du      
  32 O32            1.1870    -0.6715    -0.0060 O.3     
  33 S33            1.7315    -0.9829     1.3807 S.o2    
  34 O34            3.0453    -1.4900     1.1914 O.2     
  35 O35            1.4448     0.1507     2.1882 O.2     
  36 O36            0.9045    -2.1307     1.9422 O.3     
  37 Na37           1.3338    -3.9029     1.1454 Du      
  38 O38           -6.6451     0.3175     4.2545 O.3     
  39 S39           -6.9461     1.7658     4.6124 S.o2    
  40 O40           -5.7005     2.3647     4.9428 O.2     
  41 O41           -7.8007     2.2622     3.5914 O.2     
  42 O42           -7.7692     1.7518     5.8926 O.3     
  43 Na43          -6.7128     1.3463     7.5296 Du      
  44 H44           -1.1764    -1.7845    -0.0040 H       
  45 H45           -1.2456     3.1339     0.0367 H       
  46 H46           -3.7955    -1.2681    -1.0322 H       
  47 H47           -3.5790    -1.6797     0.6828 H       
  48 H48           -5.6970     1.5539    -0.8429 H       
  49 H49           -3.8327     2.5552     1.0868 H       
  50 H50           -3.6682     2.9439    -0.6421 H       
  51 H51           -6.6333     1.2898     1.9491 H       
  52 H52           -7.5043     0.6530     0.5335 H       
  53 H53           -9.1750    -1.0368     0.7721 H       
  54 H54          -10.3233    -2.2578     4.7025 H       
  55 H55           -8.4001    -1.0420     5.6419 H       
@<TRIPOS>BOND
   1    1    2 ar
   2    1   20 1
   3    1    6 ar
   4    2    3 ar
   5    2   32 1
   6    3    4 ar
   7    3   44 1
   8    4    5 ar
   9    4    7 1
  10    5    6 ar
  11    5   10 1
  12    6   45 1
  13    7    8 1
  14    7   46 1
  15    7   47 1
  16    8    9 1
  17    8   11 am
  18    9   10 1
  19    9   48 1
  20   10   49 1
  21   10   50 1
  22   11   12 1
  23   11   13 2
  24   12   14 1
  25   12   51 1
  26   12   52 1
  27   14   15 ar
  28   14   16 ar
  29   15   38 1
  30   15   19 ar
  31   16   17 ar
  32   16   53 1
  33   17   18 ar
  34   17   26 1
  35   18   19 ar
  36   18   54 1
  37   19   55 1
  38   20   21 1
  39   21   22 2
  40   21   23 2
  41   21   24 1
  42   24   25 1
  43   26   27 1
  44   27   28 2
  45   27   29 2
  46   27   30 1
  47   30   31 1
  48   32   33 1
  49   33   34 2
  50   33   35 2
  51   33   36 1
  52   36   37 1
  53   38   39 1
  54   39   40 2
  55   39   41 2
  56   39   42 1
  57   42   43 1

#	End of record

