#	Name: ASD00311008
#	Creating user name:	WinNT
#	Creation time:	15. 06. 2019 18:34

#	Modifying user name:	WinNT
#	Modification time:	15. 06. 2019 18:34

#	Program:	/corina/corina34_cracker 3.40 0067  02.08.2006

@<TRIPOS>MOLECULE
ASD00311008
  28   29    0    0    0
SMALL
NO_CHARGES


@<TRIPOS>ATOM
   1 C1            -0.0167     1.3796     0.0096 C.ar    
   2 C2             0.0021    -0.0041     0.0020 C.ar    
   3 C3             1.2062    -0.6858    -0.0127 C.ar    
   4 C4             2.3967     0.0109    -0.0199 C.ar    
   5 C5             2.3849     1.4069    -0.0128 C.ar    
   6 C6             1.1666     2.0885     0.0021 C.ar    
   7 C7             3.6416     3.6226    -0.0125 C.2     
   8 C8             3.6576     2.1605    -0.0200 C.2     
   9 C9             5.9893     6.4982    -0.0182 C.ar    
  10 C10            4.7877     5.7817    -0.0114 C.ar    
  11 C11            4.8039     4.3108    -0.0190 C.2     
  12 C12            5.9657     7.8767    -0.0106 C.ar    
  13 C13            4.7573     8.5518     0.0037 C.ar    
  14 C14            3.5641     7.8502     0.0105 C.ar    
  15 C15            3.5707     6.4716     0.0030 C.ar    
  16 O16            4.7184     1.5636    -0.0321 O.2     
  17 H17           -0.9599     1.9056     0.0170 H       
  18 H18           -0.9272    -0.5543     0.0080 H       
  19 H19            1.2139    -1.7658    -0.0182 H       
  20 H20            3.3358    -0.5224    -0.0307 H       
  21 H21            1.1505     3.1684     0.0074 H       
  22 H22            2.7004     4.1522    -0.0017 H       
  23 H23            6.9330     5.9729    -0.0249 H       
  24 H24            5.7450     3.7812    -0.0298 H       
  25 H25            6.8924     8.4313    -0.0154 H       
  26 H26            4.7455     9.6317     0.0096 H       
  27 H27            2.6255     8.3843     0.0220 H       
  28 H28            2.6389     5.9256     0.0079 H       
@<TRIPOS>BOND
   1    1    2 ar
   2    1    6 ar
   3    1   17 1
   4    2    3 ar
   5    2   18 1
   6    3    4 ar
   7    3   19 1
   8    4    5 ar
   9    4   20 1
  10    5    6 ar
  11    5    8 1
  12    6   21 1
  13    7    8 1
  14    7   11 2
  15    7   22 1
  16    8   16 2
  17    9   10 ar
  18    9   12 ar
  19    9   23 1
  20   10   11 1
  21   10   15 ar
  22   11   24 1
  23   12   13 ar
  24   12   25 1
  25   13   14 ar
  26   13   26 1
  27   14   15 ar
  28   14   27 1
  29   15   28 1

#	End of record

