#	Name: ASD00311019
#	Creating user name:	WinNT
#	Creation time:	15. 06. 2019 18:34

#	Modifying user name:	WinNT
#	Modification time:	15. 06. 2019 18:34

#	Program:	/corina/corina34_cracker 3.40 0067  02.08.2006

@<TRIPOS>MOLECULE
ASD00311019
  33   35    0    0    0
SMALL
NO_CHARGES


@<TRIPOS>ATOM
   1 C1            -0.0167     1.3796     0.0096 C.ar    
   2 C2             0.0021    -0.0041     0.0020 C.ar    
   3 N3             1.1410    -0.6699    -0.0120 N.ar    
   4 C4             2.3058    -0.0557    -0.0198 C.ar    
   5 C5             2.3728     1.3386    -0.0129 C.ar    
   6 C6             1.1802     2.0731     0.0019 C.ar    
   7 C7             4.9204     1.2481    -0.0358 C.2     
   8 C8             3.6807     2.0285    -0.0207 C.2     
   9 C9             8.5963     1.7651    -0.0652 C.ar    
  10 C10            7.3599     1.0931    -0.0580 C.ar    
  11 C11            6.1137     1.8776    -0.0429 C.2     
  12 C12            9.7558     1.0493    -0.0797 C.ar    
  13 C13            9.6725    -0.3576    -0.0869 C.ar    
  14 C14            8.3947    -0.9751    -0.0790 C.ar    
  15 N15            7.2930    -0.2271    -0.0649 N.ar    
  16 O16            3.7272     3.2445    -0.0146 O.2     
  17 C17            8.3154    -2.3859    -0.0864 C.ar    
  18 C18            9.4632    -3.1264    -0.1009 C.ar    
  19 C19           10.7123    -2.5124    -0.1080 C.ar    
  20 C20           10.8269    -1.1543    -0.1022 C.ar    
  21 O21            7.1053    -3.0020    -0.0787 O.3     
  22 H22           -0.9560     1.9125     0.0170 H       
  23 H23           -0.9310    -0.5479     0.0080 H       
  24 H24            3.2168    -0.6355    -0.0312 H       
  25 H25            1.1947     3.1530     0.0076 H       
  26 H26            4.8792     0.1689    -0.0412 H       
  27 H27            8.6261     2.8447    -0.0639 H       
  28 H28            6.1550     2.9568    -0.0375 H       
  29 H29           10.7141     1.5474    -0.0858 H       
  30 H30            9.4005    -4.2045    -0.1065 H       
  31 H31           11.6042    -3.1214    -0.1191 H       
  32 H32           11.8034    -0.6931    -0.1082 H       
  33 H33            6.7466    -3.1753    -0.9598 H       
@<TRIPOS>BOND
   1    1    2 ar
   2    1    6 ar
   3    1   22 1
   4    2    3 ar
   5    2   23 1
   6    3    4 ar
   7    4    5 ar
   8    4   24 1
   9    5    6 ar
  10    5    8 1
  11    6   25 1
  12    7    8 1
  13    7   11 2
  14    7   26 1
  15    8   16 2
  16    9   10 ar
  17    9   12 ar
  18    9   27 1
  19   10   11 1
  20   10   15 ar
  21   11   28 1
  22   12   13 ar
  23   12   29 1
  24   13   14 ar
  25   13   20 ar
  26   14   15 ar
  27   14   17 ar
  28   17   18 ar
  29   17   21 1
  30   18   19 ar
  31   18   30 1
  32   19   20 ar
  33   19   31 1
  34   20   32 1
  35   21   33 1

#	End of record

