#	Name: ASD03740140
#	Creating user name:	WinNT
#	Creation time:	15. 06. 2019 20:46

#	Modifying user name:	WinNT
#	Modification time:	15. 06. 2019 20:46

#	Program:	/corina/corina34_cracker 3.40 0067  02.08.2006

@<TRIPOS>MOLECULE
ASD03740140
  31   33    0    0    0
SMALL
NO_CHARGES


@<TRIPOS>ATOM
   1 C1            -0.0169     1.3926     0.0097 C.ar    
   2 C2             0.0021    -0.0041     0.0020 C.ar    
   3 C3             1.1642    -0.7034    -0.0124 C.ar    
   4 C4             2.3943    -0.0112    -0.0204 C.ar    
   5 C5             2.3736     1.4600    -0.0128 C.ar    
   6 C6             1.1271     2.1216     0.0027 C.ar    
   7 N7             3.6640    -0.3741    -0.0334 N.2     
   8 N8             4.4650     0.7736    -0.0346 N.pl3   
   9 C9             3.6940     1.8693    -0.0223 C.2     
  10 C10            6.6752    -1.3969     0.9459 C.ar    
  11 C11            6.4437    -0.0438     1.1082 C.ar    
  12 C12            6.6836     0.5575     2.3297 C.ar    
  13 C13            7.1552    -0.1940     3.3894 C.ar    
  14 C14            7.3871    -1.5483     3.2276 C.ar    
  15 C15            7.1468    -2.1495     2.0050 C.ar    
  16 C16            5.9299     0.7764    -0.0470 C.3     
  17 Cl17           7.9799    -2.4929     4.5581 Cl      
  18 C18           -1.3047    -0.7546     0.0104 C.3     
  19 F19           -2.3659     0.1568     0.0254 F       
  20 F20           -1.3915    -1.5526    -1.1354 F       
  21 F21           -1.3697    -1.5649     1.1491 F       
  22 H22           -0.9672     1.9056     0.0169 H       
  23 H23            1.1484    -1.7832    -0.0173 H       
  24 H24            1.0843     3.2007     0.0082 H       
  25 H25            4.0425     2.8916    -0.0202 H       
  26 H26            6.4833    -1.8670    -0.0073 H       
  27 H27            6.5029     1.6148     2.4558 H       
  28 H28            7.3430     0.2759     4.3436 H       
  29 H29            7.3273    -3.2068     1.8782 H       
  30 H30            6.2862     0.3477    -0.9837 H       
  31 H31            6.2921     1.8003     0.0449 H       
@<TRIPOS>BOND
   1    1    2 ar
   2    1    6 ar
   3    1   22 1
   4    2    3 ar
   5    2   18 1
   6    3    4 ar
   7    3   23 1
   8    4    5 ar
   9    4    7 2
  10    5    6 ar
  11    5    9 2
  12    6   24 1
  13    7    8 1
  14    8    9 1
  15    8   16 1
  16    9   25 1
  17   10   11 ar
  18   10   15 ar
  19   10   26 1
  20   11   12 ar
  21   11   16 1
  22   12   13 ar
  23   12   27 1
  24   13   14 ar
  25   13   28 1
  26   14   15 ar
  27   14   17 1
  28   15   29 1
  29   16   30 1
  30   16   31 1
  31   18   19 1
  32   18   20 1
  33   18   21 1

#	End of record

