#	Name: ASD03331826
#	Creating user name:	WinNT
#	Creation time:	15. 06. 2019 20:39

#	Modifying user name:	WinNT
#	Modification time:	15. 06. 2019 20:39

#	Program:	/corina/corina34_cracker 3.40 0067  02.08.2006

@<TRIPOS>MOLECULE
ASD03331826
  63   65    0    0    0
SMALL
NO_CHARGES


@<TRIPOS>ATOM
   1 C1             0.6426     2.2478     0.5539 C.2     
   2 N2             0.9734     0.9346     0.4427 N.pl3   
   3 C3            -0.1690     0.2445     0.1796 C.2     
   4 N4            -1.1691     1.0985     0.1271 N.2     
   5 C5            -0.6966     2.3442     0.3581 C.2     
   6 C6             1.6394     3.3389     0.8493 C.3     
   7 N7             2.8729     2.7058     1.3497 N.3     
   8 C8             3.3063     1.6155     0.4646 C.3     
   9 C9             2.3413     0.4295     0.5905 C.3     
  10 C10           -1.4922     3.5844     0.3857 C.2     
  11 O11           -0.9494     4.6502     0.6059 O.2     
  12 N12           -2.8212     3.5374     0.1669 N.am    
  13 C13           -3.6121     4.7703     0.1944 C.3     
  14 C14           -5.0643     4.4370     0.5422 C.3     
  15 C15           -3.5587     5.4316    -1.1587 C.2     
  16 C16           -5.1119     3.7035     1.8840 C.3     
  17 C17           -5.8753     5.7307     0.6391 C.3     
  18 C18           -0.2696    -1.2120    -0.0142 C.2     
  19 C19           -1.5521    -3.2589    -0.4650 C.3     
  20 C20           -1.4492    -1.7686    -0.2667 C.2     
  21 O21           -3.0751     4.8433    -2.1025 O.2     
  22 C22           -5.6578     3.5435    -0.5488 C.3     
  23 C23            3.9412     3.6989     1.5236 C.3     
  24 N24           -4.0483     6.6769    -1.3199 N.am    
  25 N25           -2.5428    -3.8099     0.4693 N.3     
  26 C26           -2.8461    -5.2168     0.1487 C.3     
  27 C27           -2.5514    -6.0480     1.4151 C.3     
  28 C28           -2.6407    -4.9963     2.5521 C.3     
  29 C29           -2.0535    -3.7395     1.8626 C.3     
  30 H30            1.8552     3.8972    -0.0617 H       
  31 H31            1.2365     4.0107     1.6072 H       
  32 H32            3.3149     1.9677    -0.5669 H       
  33 H33            4.3101     1.2974     0.7463 H       
  34 H34            2.4575    -0.0368     1.5688 H       
  35 H35            2.5507    -0.2996    -0.1922 H       
  36 H36           -3.2541     2.6873    -0.0087 H       
  37 H37           -3.2046     5.4467     0.9458 H       
  38 H38           -4.6891     4.3400     2.6613 H       
  39 H39           -6.1465     3.4660     2.1318 H       
  40 H40           -4.5341     2.7818     1.8150 H       
  41 H41           -5.8358     6.2567    -0.3148 H       
  42 H42           -6.9114     5.4929     0.8802 H       
  43 H43           -5.4566     6.3643     1.4210 H       
  44 H44            0.6155    -1.8276     0.0491 H       
  45 H45           -1.8622    -3.4687    -1.4887 H       
  46 H46           -0.5815    -3.7183    -0.2780 H       
  47 H47           -2.3343    -1.1530    -0.3300 H       
  48 H48           -5.0800     2.6218    -0.6179 H       
  49 H49           -6.6924     3.3061    -0.3010 H       
  50 H50           -5.6239     4.0661    -1.5048 H       
  51 H51            3.6211     4.4553     2.2402 H       
  52 H52            4.8397     3.2051     1.8936 H       
  53 H53            4.1556     4.1734     0.5659 H       
  54 H54           -4.3726     7.1737    -0.5525 H       
  55 H55           -4.0764     7.0764    -2.2034 H       
  56 H56           -3.8967    -5.3167    -0.1242 H       
  57 H57           -2.2137    -5.5547    -0.6722 H       
  58 H58           -3.3034    -6.8255     1.5494 H       
  59 H59           -1.5522    -6.4808     1.3680 H       
  60 H60           -3.6759    -4.8304     2.8501 H       
  61 H61           -2.0326    -5.2928     3.4068 H       
  62 H62           -0.9641    -3.7689     1.8842 H       
  63 H63           -2.4192    -2.8347     2.3480 H       
@<TRIPOS>BOND
   1    1    2 1
   2    1    6 1
   3    1    5 2
   4    2    3 1
   5    2    9 1
   6    3    4 2
   7    3   18 1
   8    4    5 1
   9    5   10 1
  10    6    7 1
  11    6   30 1
  12    6   31 1
  13    7    8 1
  14    7   23 1
  15    8    9 1
  16    8   32 1
  17    8   33 1
  18    9   34 1
  19    9   35 1
  20   10   11 2
  21   10   12 am
  22   12   13 1
  23   12   36 1
  24   13   14 1
  25   13   15 1
  26   13   37 1
  27   14   16 1
  28   14   17 1
  29   14   22 1
  30   15   21 2
  31   15   24 am
  32   16   38 1
  33   16   39 1
  34   16   40 1
  35   17   41 1
  36   17   42 1
  37   17   43 1
  38   18   20 2
  39   18   44 1
  40   19   20 1
  41   19   25 1
  42   19   45 1
  43   19   46 1
  44   20   47 1
  45   22   48 1
  46   22   49 1
  47   22   50 1
  48   23   51 1
  49   23   52 1
  50   23   53 1
  51   24   54 1
  52   24   55 1
  53   25   26 1
  54   25   29 1
  55   26   27 1
  56   26   56 1
  57   26   57 1
  58   27   28 1
  59   27   58 1
  60   27   59 1
  61   28   29 1
  62   28   60 1
  63   28   61 1
  64   29   62 1
  65   29   63 1

#	End of record

