#	Name: ASD01840007
#	Creating user name:	WinNT
#	Creation time:	15. 06. 2019 19:37

#	Modifying user name:	WinNT
#	Modification time:	15. 06. 2019 19:37

#	Program:	/corina/corina34_cracker 3.40 0067  02.08.2006

@<TRIPOS>MOLECULE
ASD01840007
  65   68    0    0    0
SMALL
NO_CHARGES


@<TRIPOS>ATOM
   1 C1            -0.1035     1.7899    -0.3158 C.3     
   2 C2             0.1129     0.2755    -0.3405 C.3     
   3 C3             0.8618    -0.1534     0.9228 C.3     
   4 S4             1.2484    -1.9230     0.8252 S.3     
   5 N5            -3.2169    -1.1378     0.1387 N.pl3   
   6 N6            -2.9013    -1.6508    -1.1258 N.2     
   7 C7            -1.6988    -1.2223    -1.4527 C.2     
   8 C8            -1.2220    -0.4219    -0.3942 C.2     
   9 C9            -2.1744    -0.3910     0.5626 C.2     
  10 C10           -0.6998    -2.9644    -3.0417 C.3     
  11 C11           -0.9773    -1.5271    -2.7067 C.2     
  12 C12           -0.6091    -0.5273    -3.4766 C.2     
  13 C13            0.1216    -0.7289    -4.7749 C.3     
  14 C14            0.7015    -2.1446    -4.8263 C.3     
  15 N15           -0.3597    -3.0983    -4.4638 N.3     
  16 C16            0.0391    -4.4758    -4.7823 C.3     
  17 C17            1.2500     2.4997    -0.3871 C.3     
  18 C18            1.9090     2.2069    -1.7365 C.3     
  19 S19            3.5747     2.9246    -1.7644 S.3     
  20 N20            0.4184     6.0454    -0.6114 N.pl3   
  21 N21            1.1399     6.0278     0.5890 N.2     
  22 C22            1.5215     4.7876     0.8187 C.2     
  23 C23            1.0465     3.9855    -0.2393 C.2     
  24 C24            0.3763     4.7855    -1.0963 C.2     
  25 C25            3.6533     4.9401     2.2293 C.3     
  26 C26            2.3085     4.3201     1.9797 C.2     
  27 C27            1.7983     3.3815     2.7457 C.2     
  28 C28            2.5123     2.8423     3.9537 C.3     
  29 C29            3.9933     3.2246     3.8913 C.3     
  30 N30            4.0929     4.6648     3.6030 N.3     
  31 C31            5.4603     5.1530     3.8260 C.3     
  32 H32           -0.7133     2.0838    -1.1701 H       
  33 H33           -0.6121     2.0692     0.6069 H       
  34 H34            0.6989     0.0065    -1.2193 H       
  35 H35            1.7871     0.4165     1.0078 H       
  36 H36            0.2379     0.0345     1.7966 H       
  37 H37            1.8946    -2.1558     1.9816 H       
  38 H38           -4.0429    -1.2893     0.6242 H       
  39 H39           -2.1134     0.1385     1.5019 H       
  40 H40            0.1330    -3.3219    -2.4361 H       
  41 H41           -1.5843    -3.5631    -2.8241 H       
  42 H42           -0.8412     0.4801    -3.1639 H       
  43 H43           -0.5702    -0.5900    -5.6057 H       
  44 H44            0.9306    -0.0025    -4.8523 H       
  45 H45            1.0572    -2.3582    -5.8342 H       
  46 H46            1.5263    -2.2283    -4.1186 H       
  47 H47           -0.7831    -5.1541    -4.5541 H       
  48 H48            0.2856    -4.5470    -5.8416 H       
  49 H49            0.9108    -4.7484    -4.1873 H       
  50 H50            1.8921     2.1392     0.4166 H       
  51 H51            1.9754     1.1287    -1.8821 H       
  52 H52            1.3110     2.6453    -2.5356 H       
  53 H53            4.0257     2.5950    -2.9880 H       
  54 H54            0.0151     6.8266    -1.0214 H       
  55 H55           -0.1086     4.4727    -2.0092 H       
  56 H56            4.3778     4.5252     1.5285 H       
  57 H57            3.5872     6.0179     2.0806 H       
  58 H58            0.8263     2.9816     2.4971 H       
  59 H59            2.0671     3.2623     4.8556 H       
  60 H60            2.4187     1.7565     3.9757 H       
  61 H61            4.4677     3.0091     4.8486 H       
  62 H62            4.4846     2.6580     3.1002 H       
  63 H63            5.4938     6.2294     3.6574 H       
  64 H64            5.7608     4.9363     4.8511 H       
  65 H65            6.1409     4.6556     3.1350 H       
@<TRIPOS>BOND
   1    1    2 1
   2    1   17 1
   3    1   32 1
   4    1   33 1
   5    2    3 1
   6    2    8 1
   7    2   34 1
   8    3    4 1
   9    3   35 1
  10    3   36 1
  11    4   37 1
  12    5    6 1
  13    5    9 1
  14    5   38 1
  15    6    7 2
  16    7    8 1
  17    7   11 1
  18    8    9 2
  19    9   39 1
  20   10   11 1
  21   10   15 1
  22   10   40 1
  23   10   41 1
  24   11   12 2
  25   12   13 1
  26   12   42 1
  27   13   14 1
  28   13   43 1
  29   13   44 1
  30   14   15 1
  31   14   45 1
  32   14   46 1
  33   15   16 1
  34   16   47 1
  35   16   48 1
  36   16   49 1
  37   17   18 1
  38   17   23 1
  39   17   50 1
  40   18   19 1
  41   18   51 1
  42   18   52 1
  43   19   53 1
  44   20   21 1
  45   20   24 1
  46   20   54 1
  47   21   22 2
  48   22   23 1
  49   22   26 1
  50   23   24 2
  51   24   55 1
  52   25   26 1
  53   25   30 1
  54   25   56 1
  55   25   57 1
  56   26   27 2
  57   27   28 1
  58   27   58 1
  59   28   29 1
  60   28   59 1
  61   28   60 1
  62   29   30 1
  63   29   61 1
  64   29   62 1
  65   30   31 1
  66   31   63 1
  67   31   64 1
  68   31   65 1

#	End of record

