#	Name: ASD01230110
#	Creating user name:	WinNT
#	Creation time:	15. 06. 2019 19:11

#	Modifying user name:	WinNT
#	Modification time:	15. 06. 2019 19:11

#	Program:	/corina/corina34_cracker 3.40 0067  02.08.2006

@<TRIPOS>MOLECULE
ASD01230110
  58   61    0    0    0
SMALL
NO_CHARGES


@<TRIPOS>ATOM
   1 C1            -0.0183     1.3348     0.1410 C.2     
   2 C2             0.0040     0.0064    -0.1323 C.2     
   3 C3            -1.1803    -0.8649    -0.3236 C.ar    
   4 C4            -1.1560    -1.9183    -1.2429 C.ar    
   5 N5             1.2824     1.7503     0.2161 N.pl3   
   6 C6             2.0688     0.6578     0.0155 C.2     
   7 N7             1.2929    -0.3813    -0.1996 N.2     
   8 C8            -2.3501    -0.6593     0.4144 C.ar    
   9 C9            -3.4283    -1.4934     0.2054 C.ar    
  10 N10           -3.3657    -2.4735    -0.6761 N.ar    
  11 C11           -2.2796    -2.7047    -1.3891 C.ar    
  12 C12            3.5479     0.6424     0.0354 C.ar    
  13 C13            4.2301    -0.4984     0.4577 C.ar    
  14 C14           -4.6949    -1.2832     0.9945 C.3     
  15 C15            4.2652     1.7671    -0.3737 C.ar    
  16 C16            5.6451     1.7495    -0.3539 C.ar    
  17 C17            6.3201     0.6201     0.0703 C.ar    
  18 C18            5.6146    -0.5057     0.4737 C.ar    
  19 C19           -1.2250     2.2102     0.3511 C.3     
  20 C20           -0.8636     3.6525    -0.0173 C.3     
  21 O21           -0.2945     4.3068     1.1162 O.3     
  22 C22            0.9079     3.7181     1.6103 C.3     
  23 C23            1.7133     3.1308     0.4479 C.3     
  24 C24            1.7430     4.7861     2.3195 C.3     
  25 O25            6.2832    -1.6132     0.8902 O.3     
  26 C26            5.4940    -2.7351     1.2910 C.3     
  27 C27            6.4148    -3.8777     1.7240 C.3     
  28 C28           -2.2688    -3.8395    -2.3806 C.3     
  29 C29            7.8270     0.6085     0.0885 C.3     
  30 F30            8.3084     1.8419    -0.3634 F       
  31 F31            8.2758     0.3828     1.3942 F       
  32 F32            8.2956    -0.4100    -0.7483 F       
  33 H33           -0.2707    -2.1130    -1.8300 H       
  34 H34           -2.4082     0.1406     1.1377 H       
  35 H35            3.6802    -1.3733     0.7715 H       
  36 H36           -5.3494    -0.5983     0.4554 H       
  37 H37           -5.2013    -2.2388     1.1301 H       
  38 H38           -4.4499    -0.8603     1.9688 H       
  39 H39            3.7409     2.6509    -0.7060 H       
  40 H40            6.1993     2.6205    -0.6711 H       
  41 H41           -2.0411     1.8650    -0.2837 H       
  42 H42           -1.5302     2.1661     1.3965 H       
  43 H43           -0.1422     3.6487    -0.8344 H       
  44 H44           -1.7627     4.1837    -0.3296 H       
  45 H45            0.6598     2.9256     2.3162 H       
  46 H46            2.7746     3.1445     0.6962 H       
  47 H47            1.5404     3.7225    -0.4511 H       
  48 H48            1.1726     5.2007     3.1506 H       
  49 H49            2.6617     4.3374     2.6973 H       
  50 H50            1.9896     5.5811     1.6157 H       
  51 H51            4.8530    -2.4490     2.1249 H       
  52 H52            4.8771    -3.0628     0.4543 H       
  53 H53            7.0558    -4.1637     0.8901 H       
  54 H54            7.0317    -3.5500     2.5608 H       
  55 H55            5.8128    -4.7334     2.0297 H       
  56 H56           -2.6107    -3.4779    -3.3504 H       
  57 H57           -1.2555    -4.2299    -2.4751 H       
  58 H58           -2.9325    -4.6315    -2.0336 H       
@<TRIPOS>BOND
   1    1    2 2
   2    1    5 1
   3    1   19 1
   4    2    3 1
   5    2    7 1
   6    3    4 ar
   7    3    8 ar
   8    4   11 ar
   9    4   33 1
  10    5    6 1
  11    5   23 1
  12    6    7 2
  13    6   12 1
  14    8    9 ar
  15    8   34 1
  16    9   10 ar
  17    9   14 1
  18   10   11 ar
  19   11   28 1
  20   12   15 ar
  21   12   13 ar
  22   13   18 ar
  23   13   35 1
  24   14   36 1
  25   14   37 1
  26   14   38 1
  27   15   16 ar
  28   15   39 1
  29   16   17 ar
  30   16   40 1
  31   17   29 1
  32   17   18 ar
  33   18   25 1
  34   19   20 1
  35   19   41 1
  36   19   42 1
  37   20   21 1
  38   20   43 1
  39   20   44 1
  40   21   22 1
  41   22   23 1
  42   22   24 1
  43   22   45 1
  44   23   46 1
  45   23   47 1
  46   24   48 1
  47   24   49 1
  48   24   50 1
  49   25   26 1
  50   26   27 1
  51   26   51 1
  52   26   52 1
  53   27   53 1
  54   27   54 1
  55   27   55 1
  56   28   56 1
  57   28   57 1
  58   28   58 1
  59   29   30 1
  60   29   31 1
  61   29   32 1

#	End of record

