#	Name: ASD02030546
#	Creating user name:	WinNT
#	Creation time:	15. 06. 2019 20:15

#	Modifying user name:	WinNT
#	Modification time:	15. 06. 2019 20:15

#	Program:	/corina/corina34_cracker 3.40 0067  02.08.2006

@<TRIPOS>MOLECULE
ASD02030546
  23   24    0    0    0
SMALL
NO_CHARGES


@<TRIPOS>ATOM
   1 C1            -0.0558     1.4026    -0.4149 C.ar    
   2 C2            -0.0692     0.0720    -0.8570 C.ar    
   3 C3             1.1092    -0.5759    -1.0966 C.ar    
   4 C4             2.3226     0.0699    -0.8963 C.ar    
   5 C5             2.3590     1.3706    -0.4391 C.ar    
   6 C6             1.1737     2.0467    -0.1804 C.ar    
   7 O7             1.2012     3.3064     0.3156 O.3     
   8 C8             0.1368     4.0884     0.0275 C.2     
   9 C9            -1.2005     3.4679     0.0464 C.2     
  10 C10           -1.2709     2.1016    -0.1969 C.2     
  11 O11            0.2779     5.2673    -0.2386 O.2     
  12 C12           -2.4100     4.2620     0.3127 C.2     
  13 O13           -3.4861     3.7093     0.4309 O.2     
  14 O14           -2.3248     5.6025     0.4257 O.3     
  15 C15           -2.5962     1.3850    -0.2287 C.3     
  16 Br16           1.0886    -2.3662    -1.7052 Br      
  17 H17           -1.0086    -0.4393    -1.0073 H       
  18 H18            3.2462    -0.4516    -1.1002 H       
  19 H19            3.3077     1.8626    -0.2830 H       
  20 H20           -3.1464     6.0813     0.6009 H       
  21 H21           -2.8838     1.1079     0.7855 H       
  22 H22           -3.3544     2.0421    -0.6547 H       
  23 H23           -2.5090     0.4867    -0.8399 H       
@<TRIPOS>BOND
   1    1    2 ar
   2    1    6 ar
   3    1   10 1
   4    2    3 ar
   5    2   17 1
   6    3    4 ar
   7    3   16 1
   8    4    5 ar
   9    4   18 1
  10    5    6 ar
  11    5   19 1
  12    6    7 1
  13    7    8 1
  14    8    9 1
  15    8   11 2
  16    9   10 2
  17    9   12 1
  18   10   15 1
  19   12   13 2
  20   12   14 1
  21   14   20 1
  22   15   21 1
  23   15   22 1
  24   15   23 1

#	End of record

