#	Name: ASD05720254
#	Creating user name:	WinNT
#	Creation time:	15. 06. 2019 21:02

#	Modifying user name:	WinNT
#	Modification time:	15. 06. 2019 21:02

#	Program:	/corina/corina34_cracker 3.40 0067  02.08.2006

@<TRIPOS>MOLECULE
ASD05720254
  52   56    0    0    0
SMALL
NO_CHARGES


@<TRIPOS>ATOM
   1 C1             0.5116     1.0241     1.1162 C.2     
   2 N2             0.4120    -0.2388     0.6810 N.am    
   3 C3             1.6580    -0.6134    -0.0042 C.3     
   4 C4             2.5297     0.6535     0.0959 C.3     
   5 N5             1.6822     1.6074     0.8269 N.am    
   6 O6            -0.3815     1.5912     1.7151 O.2     
   7 C7             2.0584     2.9779     1.1823 C.3     
   8 C8             1.3821    -0.9611    -1.4684 C.3     
   9 C9             0.5227    -2.2250    -1.5392 C.3     
  10 C10            0.6402     0.1981    -2.1368 C.3     
  11 C11           -1.6780    -3.1431     0.6624 C.2     
  12 N12           -0.6244    -2.3356     0.5059 N.2     
  13 C13           -0.6924    -1.0633     0.8501 C.2     
  14 C14           -1.8855    -0.5410     1.3897 C.2     
  15 C15           -2.9534    -1.3552     1.5494 C.2     
  16 N16           -2.8526    -2.6688     1.1836 N.pl3   
  17 N17           -3.7639    -3.7299     1.2270 N.2     
  18 C18           -3.1916    -4.8114     0.7582 C.2     
  19 C19           -1.8788    -4.5013     0.3822 C.2     
  20 C20           -0.8881    -5.4342    -0.1999 C.ar    
  21 C21           -0.6490    -6.6678     0.4083 C.ar    
  22 C22            0.2725    -7.5354    -0.1341 C.ar    
  23 C23            0.9673    -7.1817    -1.2907 C.ar    
  24 C24            0.7289    -5.9493    -1.8988 C.ar    
  25 C25           -0.1965    -5.0832    -1.3608 C.ar    
  26 N26            3.4789    -9.0342    -3.1449 N.pl3   
  27 N27            2.6756    -7.8979    -2.9559 N.2     
  28 C28            1.9604    -8.1162    -1.8737 C.2     
  29 N29            2.2780    -9.3231    -1.3855 N.2     
  30 C30            3.1871    -9.8804    -2.1409 C.2     
  31 H31            2.1381    -1.4493     0.5046 H       
  32 H32            3.4426     0.4467     0.6544 H       
  33 H33            2.7659     1.0348    -0.8975 H       
  34 H34            1.2376     3.4521     1.7204 H       
  35 H35            2.9451     2.9586     1.8159 H       
  36 H36            2.2724     3.5428     0.2750 H       
  37 H37            2.3262    -1.1343    -1.9849 H       
  38 H38           -0.4944    -1.9908    -1.2252 H       
  39 H39            0.5099    -2.5988    -2.5631 H       
  40 H40            0.9405    -2.9858    -0.8799 H       
  41 H41            1.2525     1.0985    -2.0864 H       
  42 H42            0.4437    -0.0496    -3.1799 H       
  43 H43           -0.3039     0.3713    -1.6203 H       
  44 H44           -1.9460     0.4994     1.6732 H       
  45 H45           -3.8753    -0.9723     1.9615 H       
  46 H46           -3.6572    -5.7820     0.6724 H       
  47 H47           -1.1864    -6.9415     1.3042 H       
  48 H48            0.4576    -8.4898     0.3363 H       
  49 H49            1.2673    -5.6761    -2.7943 H       
  50 H50           -0.3839    -4.1307    -1.8341 H       
  51 H51            4.1161    -9.1817    -3.8613 H       
  52 H52            3.6286   -10.8538    -1.9856 H       
@<TRIPOS>BOND
   1    1    2 am
   2    1    5 am
   3    1    6 2
   4    2    3 1
   5    2   13 1
   6    3    4 1
   7    3    8 1
   8    3   31 1
   9    4    5 1
  10    4   32 1
  11    4   33 1
  12    5    7 1
  13    7   34 1
  14    7   35 1
  15    7   36 1
  16    8    9 1
  17    8   10 1
  18    8   37 1
  19    9   38 1
  20    9   39 1
  21    9   40 1
  22   10   41 1
  23   10   42 1
  24   10   43 1
  25   11   12 1
  26   11   16 1
  27   11   19 2
  28   12   13 2
  29   13   14 1
  30   14   15 2
  31   14   44 1
  32   15   16 1
  33   15   45 1
  34   16   17 1
  35   17   18 2
  36   18   19 1
  37   18   46 1
  38   19   20 1
  39   20   21 ar
  40   20   25 ar
  41   21   22 ar
  42   21   47 1
  43   22   23 ar
  44   22   48 1
  45   23   24 ar
  46   23   28 1
  47   24   25 ar
  48   24   49 1
  49   25   50 1
  50   26   27 1
  51   26   30 1
  52   26   51 1
  53   27   28 2
  54   28   29 1
  55   29   30 2
  56   30   52 1

#	End of record

