#	Name: ASD00843540
#	Creating user name:	WinNT
#	Creation time:	15. 06. 2019 18:47

#	Modifying user name:	WinNT
#	Modification time:	15. 06. 2019 18:47

#	Program:	/corina/corina34_cracker 3.40 0067  02.08.2006

@<TRIPOS>MOLECULE
ASD00843540
  97  102    0    0    0
SMALL
NO_CHARGES


@<TRIPOS>ATOM
   1 F1             5.6253    -2.3034    -2.2133 F       
   2 N2             0.7672     1.1936    -0.6750 N.ar    
   3 C3             0.9781    -0.0977    -0.8675 C.ar    
   4 C4             0.8726    -0.9969     0.1861 C.ar    
   5 C5             0.5431    -0.5242     1.4442 C.ar    
   6 C6             0.3297     0.8382     1.6046 C.ar    
   7 C7             0.4516     1.6741     0.5128 C.ar    
   8 C8             1.1134    -2.4676    -0.0381 C.3     
   9 C9             0.8076    -3.2526     1.2194 C.2     
  10 C10            0.2662    -2.9759    -1.2064 C.3     
  11 C11           -1.1815    -2.6355    -0.9626 C.2     
  12 N12           -2.1257    -3.0440    -1.8333 N.am    
  13 O13           -1.4969    -1.9940     0.0172 O.2     
  14 C14           -3.5237    -2.6210    -1.6744 C.3     
  15 C15           -4.4166    -3.8657    -1.6579 C.3     
  16 C16           -4.1503    -4.6964    -2.9153 C.3     
  17 C17           -2.6889    -5.1504    -2.9287 C.3     
  18 C18           -1.7754    -3.9158    -2.9629 C.3     
  19 N19           -5.0287    -5.8738    -2.9191 N.3     
  20 C20           -4.8859    -6.6333    -4.1691 C.3     
  21 C21           -5.7552    -7.8911    -4.1007 C.3     
  22 N22           -7.1556    -7.5042    -3.8800 N.3     
  23 C23           -7.2984    -6.7447    -2.6300 C.3     
  24 C24           -6.4291    -5.4869    -2.6984 C.3     
  25 C25           -8.0340    -8.6817    -3.8838 C.3     
  26 O26           -0.2650    -3.3232     1.7811 O.2     
  27 N27            1.9466    -3.8569     1.5967 N.am    
  28 C28            2.5806    -2.7316    -0.2900 C.ar    
  29 C29            3.0072    -3.5725     0.7329 C.ar    
  30 C30            3.4496    -2.3076    -1.2710 C.ar    
  31 C31            4.7715    -2.7173    -1.2516 C.ar    
  32 C32            5.2181    -3.5627    -0.2309 C.ar    
  33 C33            4.3330    -3.9886     0.7591 C.ar    
  34 C34            1.7190    -6.4741     2.4170 C.ar    
  35 C35            0.4496    -6.7973     1.9607 C.ar    
  36 C36            2.7031    -7.4429     2.4622 C.ar    
  37 C37            2.4235    -8.7333     2.0526 C.ar    
  38 C38            1.1588    -9.0581     1.5973 C.ar    
  39 C39            0.1714    -8.0933     1.5507 C.ar    
  40 H40            0.9429   -10.0669     1.2779 H       
  41 O41           -0.5201    -5.8462     1.9158 O.3     
  42 C42           -1.8036    -6.2506     1.4348 C.3     
  43 C43           -2.7567    -5.0540     1.4570 C.3     
  44 C44           -9.4598    -8.2555    -3.5284 C.3     
  45 C45           -8.0242    -9.3207    -5.2739 C.3     
  46 O46            1.3001    -0.5486    -2.1060 O.3     
  47 C47            1.2994     0.4099    -3.1659 C.3     
  48 C48            1.7845    -0.2554    -4.4555 C.3     
  49 F49            3.0460    -0.8214    -4.2422 F       
  50 F50            0.8821    -1.2559    -4.8320 F       
  51 S51            2.0783    -4.8277     2.9318 S.o2    
  52 O52            3.4495    -4.8139     3.3043 O.2     
  53 O53            1.0301    -4.4445     3.8114 O.2     
  54 C54            6.5841    -3.9916    -0.2028 C.1     
  55 N55            7.6677    -4.3319    -0.1805 N.1     
  56 H56            0.4537    -1.1997     2.2821 H       
  57 H57            0.0707     1.2397     2.5732 H       
  58 H58            0.2869     2.7347     0.6324 H       
  59 H59            0.6000    -2.5031    -2.1300 H       
  60 H60            0.3759    -4.0570    -1.2914 H       
  61 H61           -3.6368    -2.0777    -0.7362 H       
  62 H62           -3.8080    -1.9784    -2.5077 H       
  63 H63           -4.1928    -4.4623    -0.7735 H       
  64 H64           -5.4633    -3.5623    -1.6372 H       
  65 H65           -4.3507    -4.0912    -3.7995 H       
  66 H66           -2.4813    -5.7349    -2.0324 H       
  67 H67           -2.5059    -5.7615    -3.8126 H       
  68 H68           -1.9185    -3.3812    -3.9020 H       
  69 H69           -0.7351    -4.2283    -2.8728 H       
  70 H70           -5.2054    -6.0157    -5.0084 H       
  71 H71           -3.8427    -6.9191    -4.3038 H       
  72 H72           -5.6733    -8.4412    -5.0382 H       
  73 H73           -5.4182    -8.5219    -3.2781 H       
  74 H74           -8.3416    -6.4589    -2.4953 H       
  75 H75           -6.9789    -7.3624    -1.7907 H       
  76 H76           -6.5110    -4.9369    -1.7609 H       
  77 H77           -6.7661    -4.8562    -3.5210 H       
  78 H78           -7.6769    -9.4037    -3.1495 H       
  79 H79            3.0989    -1.6549    -2.0567 H       
  80 H80            4.6783    -4.6414     1.5471 H       
  81 H81            3.6916    -7.1917     2.8173 H       
  82 H82            3.1943    -9.4890     2.0880 H       
  83 H83           -0.8163    -8.3476     1.1957 H       
  84 H84           -1.7089    -6.6208     0.4140 H       
  85 H85           -2.1982    -7.0413     2.0729 H       
  86 H86           -3.7357    -5.3624     1.0901 H       
  87 H87           -2.8514    -4.6838     2.4779 H       
  88 H88           -2.3622    -4.2633     0.8189 H       
  89 H89           -9.8169    -7.5334    -4.2628 H       
  90 H90          -10.1116    -9.1291    -3.5312 H       
  91 H91           -9.4668    -7.8002    -2.5381 H       
  92 H92           -8.3813    -8.5987    -6.0082 H       
  93 H93           -7.0085    -9.6244    -5.5271 H       
  94 H94           -8.6760   -10.1944    -5.2767 H       
  95 H95            0.2883     0.7901    -3.3113 H       
  96 H96            1.9645     1.2348    -2.9102 H       
  97 H97            1.8503     0.4912    -5.2469 H       
@<TRIPOS>BOND
   1    1   31 1
   2    2    3 ar
   3    2    7 ar
   4    3    4 ar
   5    3   46 1
   6    4    5 ar
   7    4    8 1
   8    5    6 ar
   9    5   56 1
  10    6    7 ar
  11    6   57 1
  12    7   58 1
  13    8    9 1
  14    8   10 1
  15    8   28 1
  16    9   26 2
  17    9   27 am
  18   10   11 1
  19   10   59 1
  20   10   60 1
  21   11   12 am
  22   11   13 2
  23   12   14 1
  24   12   18 1
  25   14   15 1
  26   14   61 1
  27   14   62 1
  28   15   16 1
  29   15   63 1
  30   15   64 1
  31   16   17 1
  32   16   19 1
  33   16   65 1
  34   17   18 1
  35   17   66 1
  36   17   67 1
  37   18   68 1
  38   18   69 1
  39   19   20 1
  40   19   24 1
  41   20   21 1
  42   20   70 1
  43   20   71 1
  44   21   22 1
  45   21   72 1
  46   21   73 1
  47   22   23 1
  48   22   25 1
  49   23   24 1
  50   23   74 1
  51   23   75 1
  52   24   76 1
  53   24   77 1
  54   25   44 1
  55   25   45 1
  56   25   78 1
  57   27   51 am
  58   27   29 1
  59   28   29 ar
  60   28   30 ar
  61   29   33 ar
  62   30   31 ar
  63   30   79 1
  64   31   32 ar
  65   32   33 ar
  66   32   54 1
  67   33   80 1
  68   34   35 ar
  69   34   36 ar
  70   34   51 1
  71   35   41 1
  72   35   39 ar
  73   36   37 ar
  74   36   81 1
  75   37   38 ar
  76   37   82 1
  77   38   39 ar
  78   38   40 1
  79   39   83 1
  80   41   42 1
  81   42   43 1
  82   42   84 1
  83   42   85 1
  84   43   86 1
  85   43   87 1
  86   43   88 1
  87   44   89 1
  88   44   90 1
  89   44   91 1
  90   45   92 1
  91   45   93 1
  92   45   94 1
  93   46   47 1
  94   47   48 1
  95   47   95 1
  96   47   96 1
  97   48   49 1
  98   48   50 1
  99   48   97 1
 100   51   52 2
 101   51   53 2
 102   54   55 3

#	End of record

