#	Name: ASD01901120
#	Creating user name:	WinNT
#	Creation time:	15. 06. 2019 19:53

#	Modifying user name:	WinNT
#	Modification time:	15. 06. 2019 19:53

#	Program:	/corina/corina34_cracker 3.40 0067  02.08.2006

@<TRIPOS>MOLECULE
ASD01901120
  27   29    0    0    0
SMALL
NO_CHARGES


@<TRIPOS>ATOM
   1 C1            -0.0167     1.3706     0.0804 C.ar    
   2 C2             0.0013     0.0362     0.3732 C.ar    
   3 C3             1.2037    -0.6402     0.5356 C.ar    
   4 C4             2.3939     0.0162     0.4050 C.ar    
   5 C5             2.4014     1.3812     0.1053 C.ar    
   6 N6             1.4944     3.3704    -0.3407 N.pl3   
   7 C7             1.1820     2.0660    -0.0586 C.ar    
   8 C8             3.4594     2.3717    -0.1006 C.2     
   9 N9             2.8852     3.5167    -0.3589 N.2     
  10 N10            4.8353     2.1354    -0.0326 N.pl3   
  11 C11            5.7329     3.2000    -0.1416 C.ar    
  12 C12            6.2502     5.5214     0.1706 C.ar    
  13 C13            5.3604     4.4706     0.2791 C.ar    
  14 C14            7.0023     2.9894    -0.6656 C.ar    
  15 C15            7.8879     4.0449    -0.7715 C.ar    
  16 C16            7.5111     5.3104    -0.3556 C.ar    
  17 Cl17           9.4745     3.7837    -1.4260 Cl      
  18 H18           -0.9582     1.8840    -0.0475 H       
  19 H19           -0.9305    -0.4991     0.4801 H       
  20 H20            1.1971    -1.6950     0.7675 H       
  21 H21            3.3246    -0.5166     0.5331 H       
  22 H22            0.8527     4.0793    -0.5034 H       
  23 H23            5.1667     1.2321     0.0902 H       
  24 H24            5.9606     6.5091     0.4976 H       
  25 H25            4.3756     4.6366     0.6903 H       
  26 H26            7.2967     2.0021    -0.9894 H       
  27 H27            8.2048     6.1339    -0.4392 H       
@<TRIPOS>BOND
   1    1    2 ar
   2    1    7 ar
   3    1   18 1
   4    2    3 ar
   5    2   19 1
   6    3    4 ar
   7    3   20 1
   8    4    5 ar
   9    4   21 1
  10    5    8 1
  11    5    7 ar
  12    6    7 1
  13    6    9 1
  14    6   22 1
  15    8    9 2
  16    8   10 1
  17   10   11 1
  18   10   23 1
  19   11   14 ar
  20   11   13 ar
  21   12   13 ar
  22   12   16 ar
  23   12   24 1
  24   13   25 1
  25   14   15 ar
  26   14   26 1
  27   15   16 ar
  28   15   17 1
  29   16   27 1

#	End of record

