#	Name: ASD01200065
#	Creating user name:	WinNT
#	Creation time:	15. 06. 2019 19:08

#	Modifying user name:	WinNT
#	Modification time:	15. 06. 2019 19:08

#	Program:	/corina/corina34_cracker 3.40 0067  02.08.2006

@<TRIPOS>MOLECULE
ASD01200065
  37   39    0    0    0
SMALL
NO_CHARGES


@<TRIPOS>ATOM
   1 C1            -0.0090     1.3396     0.2261 C.ar    
   2 C2            -0.0130    -0.0388     0.0444 C.ar    
   3 C3            -1.2030    -0.7091    -0.1686 C.ar    
   4 C4            -2.3951    -0.0148    -0.2025 C.ar    
   5 C5            -2.4023     1.3699    -0.0211 C.ar    
   6 C6            -1.2027     2.0458     0.1996 C.ar    
   7 C7            -3.6779     2.1159    -0.0574 C.2     
   8 N8            -4.0273     2.9042     0.9785 N.am    
   9 C9            -5.2259     3.6051     0.9444 C.2     
  10 O10           -4.4119     2.0184    -1.0215 O.2     
  11 S11            1.5111     2.1883     0.4972 S.3     
  12 N12           -5.6553     4.3879     1.8844 N.2     
  13 C13           -6.8197     4.9770     1.6859 C.2     
  14 C14           -7.4017     4.6778     0.5229 C.2     
  15 S15           -6.3463     3.5669    -0.3464 S.3     
  16 C16            2.0269     2.4322    -1.1699 C.2     
  17 N17            3.2133     2.9676    -1.5827 N.pl3   
  18 C18            3.1689     2.9574    -2.9490 C.2     
  19 N19            2.0219     2.4451    -3.2961 N.2     
  20 N20            1.3456     2.1284    -2.2501 N.2     
  21 C21            4.3069     3.4523    -0.7369 C.3     
  22 C22           -7.4414     5.9119     2.6911 C.3     
  23 N23           -3.6664    -0.7379    -0.4315 N.pl3   
  24 O24           -3.6510    -1.9230    -0.7119 O.2     
  25 O25           -4.7279    -0.1476    -0.3395 O.2     
  26 H26            0.9168    -0.5876     0.0694 H       
  27 H27           -1.1997    -1.7798    -0.3095 H       
  28 H28           -1.2020     3.1166     0.3408 H       
  29 H29           -3.4416     2.9820     1.7478 H       
  30 H30           -8.3522     5.0537     0.1741 H       
  31 H31            3.9411     3.3092    -3.6171 H       
  32 H32            4.9988     2.6349    -0.5338 H       
  33 H33            4.8346     4.2559    -1.2504 H       
  34 H34            3.9008     3.8266     0.2029 H       
  35 H35           -7.1140     6.9319     2.4897 H       
  36 H36           -8.5273     5.8572     2.6151 H       
  37 H37           -7.1325     5.6228     3.6957 H       
@<TRIPOS>BOND
   1    1    2 ar
   2    1   11 1
   3    1    6 ar
   4    2    3 ar
   5    2   26 1
   6    3    4 ar
   7    3   27 1
   8    4    5 ar
   9    4   23 1
  10    5    6 ar
  11    5    7 1
  12    6   28 1
  13    7    8 am
  14    7   10 2
  15    8    9 1
  16    8   29 1
  17    9   12 2
  18    9   15 1
  19   11   16 1
  20   12   13 1
  21   13   14 2
  22   13   22 1
  23   14   15 1
  24   14   30 1
  25   16   17 1
  26   16   20 2
  27   17   18 1
  28   17   21 1
  29   18   19 2
  30   18   31 1
  31   19   20 1
  32   21   32 1
  33   21   33 1
  34   21   34 1
  35   22   35 1
  36   22   36 1
  37   22   37 1
  38   23   24 2
  39   23   25 2

#	End of record

