#	Name: ASD08830012
#	Creating user name:	WinNT
#	Creation time:	15. 06. 2019 21:19

#	Modifying user name:	WinNT
#	Modification time:	15. 06. 2019 21:19

#	Program:	/corina/corina34_cracker 3.40 0067  02.08.2006

@<TRIPOS>MOLECULE
ASD08830012
  36   38    0    0    0
SMALL
NO_CHARGES


@<TRIPOS>ATOM
   1 C1            -0.0170     1.4031     0.0098 C.ar    
   2 C2             0.0021    -0.0041     0.0020 C.ar    
   3 C3             1.1843     2.1070     0.0021 C.ar    
   4 C4             2.3729     1.4394    -0.0133 C.ar    
   5 C5             2.4056     0.0360    -0.0212 C.ar    
   6 C6             1.2123    -0.6875    -0.0136 C.ar    
   7 C7             3.6946    -0.6702    -0.0378 C.2     
   8 C8             4.9825     0.1123    -0.0465 C.3     
   9 C9             6.1672    -0.8557    -0.0635 C.3     
  10 N10            7.4226    -0.0929    -0.0720 N.3     
  11 C11            8.5770    -0.9757     0.1501 C.3     
  12 O12            3.7217    -1.8827    -0.0446 O.2     
  13 C13            9.8650    -0.1515     0.0743 C.3     
  14 O14            9.8030     0.9097     1.0310 O.3     
  15 C15            8.6909     1.7893     0.8439 C.3     
  16 C16            7.3911     0.9848     0.9275 C.3     
  17 C17           -1.4078    -0.4153     0.0133 C.2     
  18 C18           -2.1255     0.7156     0.0262 C.2     
  19 O19           -1.3093     1.7838     0.0187 O.3     
  20 H20            1.1745     3.1869     0.0080 H       
  21 H21            3.2986     1.9957    -0.0199 H       
  22 H22            1.2290    -1.7673    -0.0191 H       
  23 H23            5.0173     0.7448    -0.9335 H       
  24 H24            5.0351     0.7353     0.8464 H       
  25 H25            6.1324    -1.4882     0.8235 H       
  26 H26            6.1146    -1.4787    -0.9564 H       
  27 H27            8.4979    -1.4377     1.1342 H       
  28 H28            8.5952    -1.7508    -0.6161 H       
  29 H29           10.7198    -0.7909     0.2948 H       
  30 H30            9.9711     0.2666    -0.9267 H       
  31 H31            8.6966     2.5535     1.6210 H       
  32 H32            8.7629     2.2639    -0.1347 H       
  33 H33            6.5436     1.6408     0.7288 H       
  34 H34            7.2930     0.5541     1.9241 H       
  35 H35           -1.7891    -1.4258     0.0110 H       
  36 H36           -3.2045     0.7625     0.0362 H       
@<TRIPOS>BOND
   1    1    2 ar
   2    1    3 ar
   3    1   19 1
   4    2   17 1
   5    2    6 ar
   6    3    4 ar
   7    3   20 1
   8    4    5 ar
   9    4   21 1
  10    5    6 ar
  11    5    7 1
  12    6   22 1
  13    7    8 1
  14    7   12 2
  15    8    9 1
  16    8   23 1
  17    8   24 1
  18    9   10 1
  19    9   25 1
  20    9   26 1
  21   10   11 1
  22   10   16 1
  23   11   13 1
  24   11   27 1
  25   11   28 1
  26   13   14 1
  27   13   29 1
  28   13   30 1
  29   14   15 1
  30   15   16 1
  31   15   31 1
  32   15   32 1
  33   16   33 1
  34   16   34 1
  35   17   18 2
  36   17   35 1
  37   18   19 1
  38   18   36 1

#	End of record

