#	Name: ASD08170199
#	Creating user name:	WinNT
#	Creation time:	15. 06. 2019 21:17

#	Modifying user name:	WinNT
#	Modification time:	15. 06. 2019 21:17

#	Program:	/corina/corina34_cracker 3.40 0067  02.08.2006

@<TRIPOS>MOLECULE
ASD08170199
  63   66    0    0    0
SMALL
NO_CHARGES


@<TRIPOS>ATOM
   1 N1            -0.0150     1.2583     0.0090 N.2     
   2 N2             0.0021    -0.0041     0.0020 N.2     
   3 C3             1.1271     1.8769     0.0014 C.2     
   4 S4             2.3826     0.7116    -0.0169 S.3     
   5 C5             1.1681    -0.5677    -0.0121 C.2     
   6 C6             1.4387    -2.0502    -0.0227 C.3     
   7 C7             1.5165    -2.5442    -1.4687 C.3     
   8 C8             1.8986    -4.7206    -3.2516 C.3     
   9 C9             2.1699    -6.2152    -3.4347 C.3     
  10 C10            2.2167    -6.5408    -4.9053 C.2     
  11 N11            3.2694    -6.5184    -5.6596 N.2     
  12 S12            0.8491    -7.0282    -5.9071 S.3     
  13 C13            1.9000    -7.1354    -7.2557 C.2     
  14 N14            3.1017    -6.8250    -6.8728 N.2     
  15 N15            1.5289    -7.4992    -8.5457 N.am    
  16 C16            2.4537    -7.5464    -9.5250 C.2     
  17 O17            3.6096    -7.2716    -9.2812 O.2     
  18 C18            2.0516    -7.9407   -10.9228 C.3     
  19 N19            1.3017     3.2566     0.0067 N.am    
  20 C20            0.2284     4.0717     0.0214 C.2     
  21 O21           -0.8897     3.6019     0.0299 O.2     
  22 C22            0.4176     5.5667     0.0272 C.3     
  23 C23            0.7117     6.0413    -1.3726 C.ar    
  24 C24            1.4294    -6.7578   -11.6190 C.ar    
  25 S25            1.8422    -4.3286    -1.4814 S.3     
  26 C26            0.0540    -6.6553   -11.7119 C.ar    
  27 C27           -0.5167    -5.5703   -12.3505 C.ar    
  28 C28            0.2880    -4.5874   -12.8959 C.ar    
  29 C29            1.6634    -4.6894   -12.8022 C.ar    
  30 C30            2.2340    -5.7723   -12.1598 C.ar    
  31 C31            2.0138     6.3077    -1.7528 C.ar    
  32 C32            2.2836     6.7430    -3.0368 C.ar    
  33 C33            1.2514     6.9115    -3.9407 C.ar    
  34 C34           -0.0506     6.6441    -3.5608 C.ar    
  35 C35           -0.3199     6.2047    -2.2781 C.ar    
  36 N36           -0.8074     6.2135     0.5162 N.3     
  37 N37            3.2388    -8.3790   -11.6686 N.3     
  38 H38            2.3843    -2.2506     0.4811 H       
  39 H39            0.6334    -2.5702     0.4961 H       
  40 H40            0.5709    -2.3438    -1.9724 H       
  41 H41            2.3218    -2.0242    -1.9874 H       
  42 H42            2.6943    -4.1461    -3.7258 H       
  43 H43            0.9434    -4.4658    -3.7108 H       
  44 H44            3.1250    -6.4700    -2.9755 H       
  45 H45            1.3741    -6.7896    -2.9605 H       
  46 H46            0.6045    -7.7190    -8.7407 H       
  47 H47            1.3298    -8.7561   -10.8769 H       
  48 H48            2.1959     3.6323    -0.0001 H       
  49 H49            1.2507     5.8250     0.6809 H       
  50 H50           -0.5747    -7.4231   -11.2858 H       
  51 H51           -1.5912    -5.4906   -12.4237 H       
  52 H52           -0.1578    -3.7401   -13.3955 H       
  53 H53            2.2921    -3.9218   -13.2286 H       
  54 H54            3.3086    -5.8520   -12.0865 H       
  55 H55            2.8202     6.1761    -1.0466 H       
  56 H56            3.3008     6.9519    -3.3336 H       
  57 H57            1.4621     7.2523    -4.9436 H       
  58 H58           -0.8571     6.7760    -4.2669 H       
  59 H59           -1.3371     5.9958    -1.9813 H       
  60 H60           -0.6840     7.2121     0.5906 H       
  61 H61           -1.5948     5.9893    -0.0736 H       
  62 H62            2.9867    -8.7095   -12.5880 H       
  63 H63            3.9235    -7.6400   -11.7252 H       
@<TRIPOS>BOND
   1    1    2 1
   2    1    3 2
   3    2    5 2
   4    3    4 1
   5    3   19 1
   6    4    5 1
   7    5    6 1
   8    6    7 1
   9    6   38 1
  10    6   39 1
  11    7   25 1
  12    7   40 1
  13    7   41 1
  14    8    9 1
  15    8   25 1
  16    8   42 1
  17    8   43 1
  18    9   10 1
  19    9   44 1
  20    9   45 1
  21   10   11 2
  22   10   12 1
  23   11   14 1
  24   12   13 1
  25   13   14 2
  26   13   15 1
  27   15   16 am
  28   15   46 1
  29   16   17 2
  30   16   18 1
  31   18   24 1
  32   18   37 1
  33   18   47 1
  34   19   20 am
  35   19   48 1
  36   20   21 2
  37   20   22 1
  38   22   23 1
  39   22   36 1
  40   22   49 1
  41   23   31 ar
  42   23   35 ar
  43   24   26 ar
  44   24   30 ar
  45   26   27 ar
  46   26   50 1
  47   27   28 ar
  48   27   51 1
  49   28   29 ar
  50   28   52 1
  51   29   30 ar
  52   29   53 1
  53   30   54 1
  54   31   32 ar
  55   31   55 1
  56   32   33 ar
  57   32   56 1
  58   33   34 ar
  59   33   57 1
  60   34   35 ar
  61   34   58 1
  62   35   59 1
  63   36   60 1
  64   36   61 1
  65   37   62 1
  66   37   63 1

#	End of record

