#	Name: ASD01022012
#	Creating user name:	WinNT
#	Creation time:	15. 06. 2019 18:56

#	Modifying user name:	WinNT
#	Modification time:	15. 06. 2019 18:56

#	Program:	/corina/corina34_cracker 3.40 0067  02.08.2006

@<TRIPOS>MOLECULE
ASD01022012
  74   78    0    0    0
SMALL
NO_CHARGES


@<TRIPOS>ATOM
   1 C1            -0.0167     1.3831     0.0096 C.ar    
   2 C2             0.0021    -0.0041     0.0020 C.ar    
   3 C3             1.2141    -0.6789    -0.0132 C.ar    
   4 C4             2.3989     0.0314    -0.0207 C.ar    
   5 C5             2.3774     1.4139    -0.0126 C.ar    
   6 C6             1.1708     2.0889     0.0021 C.ar    
   7 O7            -1.1648    -0.7006     0.0099 O.3     
   8 C8             3.6714     2.1863    -0.0198 C.3     
   9 C9             4.0963     2.4560    -1.4647 C.3     
  10 O10            5.3233     3.1884    -1.4715 O.3     
  11 C11            5.8425     3.5118    -2.6860 C.ar    
  12 C12            5.1786     3.1284    -3.8481 C.ar    
  13 C13            5.6914     3.4472    -5.0859 C.ar    
  14 C14            6.8819     4.1584    -5.1840 C.ar    
  15 C15            7.5558     4.5489    -4.0110 C.ar    
  16 C16            7.0229     4.2238    -2.7615 C.ar    
  17 N17            7.6268     4.6132    -6.2532 N.pl3   
  18 C18            8.7353     5.2716    -5.8015 C.2     
  19 C19            8.7469     5.2659    -4.4548 C.2     
  20 C20            7.2803     4.4185    -7.6632 C.3     
  21 C21            6.4199     5.5890    -8.1433 C.3     
  22 C22            6.0581     5.3856    -9.6160 C.3     
  23 C23            5.1977     6.5561   -10.0961 C.3     
  24 C24            4.8358     6.3527   -11.5687 C.3     
  25 C25            3.9884     7.5056   -12.0416 C.ar    
  26 C26            4.5876     8.6274   -12.5832 C.ar    
  27 C27            3.8103     9.6849   -13.0170 C.ar    
  28 C28            2.4336     9.6205   -12.9096 C.ar    
  29 C29            1.8343     8.4983   -12.3688 C.ar    
  30 C30            2.6114     7.4389   -11.9391 C.ar    
  31 C31            9.8082     5.9203    -6.6458 C.3     
  32 C32           11.0414     6.1588    -5.7674 C.3     
  33 C33           10.6211     6.8698    -4.4780 C.3     
  34 C34            9.8165     5.9001    -3.6035 C.3     
  35 C35            1.5862    10.7738   -13.3815 C.3     
  36 F36            1.2556    10.5892   -14.7283 F       
  37 F37            0.4154    10.8353   -12.6182 F       
  38 F38            2.3008    11.9677   -13.2362 F       
  39 N39           11.8178     7.3102    -3.7485 N.3     
  40 Cl40          12.2799     8.8864    -4.2241 Cl      
  41 H41           -0.9590     1.9108     0.0170 H       
  42 H42            1.2314    -1.7588    -0.0188 H       
  43 H43            3.3426    -0.4935    -0.0325 H       
  44 H44            1.1567     3.1688     0.0084 H       
  45 H45           -1.5113    -0.8975    -0.8712 H       
  46 H46            3.5318     3.1338     0.5007 H       
  47 H47            4.4441     1.6055     0.4838 H       
  48 H48            4.2359     1.5085    -1.9852 H       
  49 H49            3.3236     3.0369    -1.9683 H       
  50 H50            4.2534     2.5757    -3.7783 H       
  51 H51            5.1684     3.1442    -5.9810 H       
  52 H52            7.5361     4.5208    -1.8588 H       
  53 H53            8.1924     4.3699    -8.2581 H       
  54 H54            6.7234     3.4882    -7.7754 H       
  55 H55            5.5078     5.6375    -7.5485 H       
  56 H56            6.9768     6.5192    -8.0312 H       
  57 H57            6.9701     5.3370   -10.2109 H       
  58 H58            5.5012     4.4553    -9.7281 H       
  59 H59            4.2856     6.6046    -9.5012 H       
  60 H60            5.7545     7.4863    -9.9839 H       
  61 H61            5.7479     6.3041   -12.1636 H       
  62 H62            4.2790     5.4224   -11.6809 H       
  63 H63            5.6632     8.6777   -12.6671 H       
  64 H64            4.2785    10.5617   -13.4394 H       
  65 H65            0.7587     8.4481   -12.2846 H       
  66 H66            2.1432     6.5622   -11.5166 H       
  67 H67           10.0705     5.2620    -7.4740 H       
  68 H68            9.4444     6.8724    -7.0322 H       
  69 H69           11.5023     5.2023    -5.5210 H       
  70 H70           11.7574     6.7786    -6.3071 H       
  71 H71           10.0053     7.7350    -4.7237 H       
  72 H72            9.3542     6.4459    -2.7810 H       
  73 H73           10.4772     5.1280    -3.2092 H       
  74 H74           11.6717     7.2617    -2.7513 H       
@<TRIPOS>BOND
   1    1    2 ar
   2    1    6 ar
   3    1   41 1
   4    2    3 ar
   5    2    7 1
   6    3    4 ar
   7    3   42 1
   8    4    5 ar
   9    4   43 1
  10    5    6 ar
  11    5    8 1
  12    6   44 1
  13    7   45 1
  14    8    9 1
  15    8   46 1
  16    8   47 1
  17    9   10 1
  18    9   48 1
  19    9   49 1
  20   10   11 1
  21   11   12 ar
  22   11   16 ar
  23   12   13 ar
  24   12   50 1
  25   13   14 ar
  26   13   51 1
  27   14   15 ar
  28   14   17 1
  29   15   16 ar
  30   15   19 1
  31   16   52 1
  32   17   18 1
  33   17   20 1
  34   18   19 2
  35   18   31 1
  36   19   34 1
  37   20   21 1
  38   20   53 1
  39   20   54 1
  40   21   22 1
  41   21   55 1
  42   21   56 1
  43   22   23 1
  44   22   57 1
  45   22   58 1
  46   23   24 1
  47   23   59 1
  48   23   60 1
  49   24   25 1
  50   24   61 1
  51   24   62 1
  52   25   26 ar
  53   25   30 ar
  54   26   27 ar
  55   26   63 1
  56   27   28 ar
  57   27   64 1
  58   28   29 ar
  59   28   35 1
  60   29   30 ar
  61   29   65 1
  62   30   66 1
  63   31   32 1
  64   31   67 1
  65   31   68 1
  66   32   33 1
  67   32   69 1
  68   32   70 1
  69   33   34 1
  70   33   39 1
  71   33   71 1
  72   34   72 1
  73   34   73 1
  74   35   36 1
  75   35   37 1
  76   35   38 1
  77   39   40 1
  78   39   74 1

#	End of record

