#	Name: ASD01911077
#	Creating user name:	WinNT
#	Creation time:	15. 06. 2019 19:57

#	Modifying user name:	WinNT
#	Modification time:	15. 06. 2019 19:57

#	Program:	/corina/corina34_cracker 3.40 0067  02.08.2006

@<TRIPOS>MOLECULE
ASD01911077
  47   50    0    0    0
SMALL
NO_CHARGES


@<TRIPOS>ATOM
   1 C1             1.0112     1.1718     0.8174 C.ar    
   2 C2             0.5777    -0.0886     0.4423 C.ar    
   3 C3            -0.7583    -0.3041     0.1620 C.ar    
   4 C4            -1.6617     0.7381     0.2559 C.ar    
   5 C5            -1.2300     1.9969     0.6303 C.ar    
   6 C6             0.1045     2.2135     0.9167 C.ar    
   7 F7             2.3170     1.3836     1.0917 F       
   8 C8            -3.1182     0.5019    -0.0505 C.3     
   9 C9            -3.8377     0.0975     1.2104 C.2     
  10 N10           -4.4180     0.8999     2.0700 N.2     
  11 C11           -4.9231     0.1011     3.0269 C.2     
  12 N12           -4.6296    -1.1235     2.7065 N.2     
  13 O13           -4.0112    -1.1478     1.6632 O.3     
  14 C14           -5.6883     0.5449     4.2470 C.3     
  15 C15           -7.0848    -0.0809     4.2296 C.3     
  16 C16           -7.8742     0.3951     5.4512 C.3     
  17 C17           -7.1568    -0.0588     6.7264 C.3     
  18 N18           -5.7676     0.4176     6.6825 N.am    
  19 C19           -4.9461     0.0927     5.5085 C.3     
  20 C20           -5.2565     1.1389     7.6999 C.2     
  21 O21           -4.0865     1.4686     7.6837 O.2     
  22 C22           -6.1182     1.5290     8.8347 C.ar    
  23 C23           -6.8944     0.5692     9.4869 C.ar    
  24 C24           -7.6970     0.9375    10.5460 C.ar    
  25 C25           -7.7347     2.2579    10.9644 C.ar    
  26 C26           -6.9650     3.2176    10.3200 C.ar    
  27 C27           -6.1545     2.8581     9.2623 C.ar    
  28 F28           -8.5232     2.6130    12.0024 F       
  29 F29           -7.0058     4.5035    10.7322 F       
  30 H30            1.2833    -0.9028     0.3685 H       
  31 H31           -1.0967    -1.2870    -0.1309 H       
  32 H32           -1.9366     2.8105     0.7031 H       
  33 H33            0.4415     3.1969     1.2096 H       
  34 H34           -3.5601     1.4177    -0.4432 H       
  35 H35           -3.2095    -0.2922    -0.7915 H       
  36 H36           -5.7765     1.6313     4.2459 H       
  37 H37           -7.6061     0.2195     3.3207 H       
  38 H38           -6.9963    -1.1671     4.2551 H       
  39 H39           -7.9418     1.4829     5.4394 H       
  40 H40           -8.8765    -0.0325     5.4259 H       
  41 H41           -7.6596     0.3609     7.5977 H       
  42 H42           -7.1682    -1.1472     6.7844 H       
  43 H43           -4.7772    -0.9833     5.4672 H       
  44 H44           -3.9903     0.6123     5.5762 H       
  45 H45           -6.8666    -0.4604     9.1621 H       
  46 H46           -8.2977     0.1951    11.0504 H       
  47 H47           -5.5559     3.6044     8.7612 H       
@<TRIPOS>BOND
   1    1    2 ar
   2    1    7 1
   3    1    6 ar
   4    2    3 ar
   5    2   30 1
   6    3    4 ar
   7    3   31 1
   8    4    5 ar
   9    4    8 1
  10    5    6 ar
  11    5   32 1
  12    6   33 1
  13    8    9 1
  14    8   34 1
  15    8   35 1
  16    9   10 2
  17    9   13 1
  18   10   11 1
  19   11   12 2
  20   11   14 1
  21   12   13 1
  22   14   15 1
  23   14   19 1
  24   14   36 1
  25   15   16 1
  26   15   37 1
  27   15   38 1
  28   16   17 1
  29   16   39 1
  30   16   40 1
  31   17   18 1
  32   17   41 1
  33   17   42 1
  34   18   19 1
  35   18   20 am
  36   19   43 1
  37   19   44 1
  38   20   21 2
  39   20   22 1
  40   22   23 ar
  41   22   27 ar
  42   23   24 ar
  43   23   45 1
  44   24   25 ar
  45   24   46 1
  46   25   26 ar
  47   25   28 1
  48   26   27 ar
  49   26   29 1
  50   27   47 1

#	End of record

