#	Name: ASD03570048
#	Creating user name:	WinNT
#	Creation time:	15. 06. 2019 20:43

#	Modifying user name:	WinNT
#	Modification time:	15. 06. 2019 20:43

#	Program:	/corina/corina34_cracker 3.40 0067  02.08.2006

@<TRIPOS>MOLECULE
ASD03570048
  50   52    0    0    0
SMALL
NO_CHARGES


@<TRIPOS>ATOM
   1 C1             0.3285     1.7887     0.9359 C.ar    
   2 C2            -0.0546     0.6479     1.6271 C.ar    
   3 C3             0.8713    -0.3514     1.8496 C.ar    
   4 N4             2.1125    -0.2366     1.4149 N.ar    
   5 C5             2.5207     0.8316     0.7526 C.ar    
   6 C6             1.6409     1.8823     0.4902 C.ar    
   7 N7             2.0746     3.0148    -0.2122 N.am    
   8 C8             1.1934     3.7440    -0.9251 C.2     
   9 N9             1.5861     4.8938    -1.5083 N.am    
  10 O10            0.0442     3.3644    -1.0422 O.2     
  11 C11            0.6481     5.7063    -2.1550 C.ar    
  12 O12            3.8066     0.9075     0.3245 O.3     
  13 C13            4.6471    -0.1108     0.6457 C.ar    
  14 C14            5.2082    -0.1754     1.9134 C.ar    
  15 C15            6.0622    -1.2114     2.2373 C.ar    
  16 C16            6.3583    -2.1839     1.2997 C.ar    
  17 C17            5.8010    -2.1217     0.0360 C.ar    
  18 C18            4.9413    -1.0908    -0.2912 C.ar    
  19 C19            0.7279     7.0879    -2.0407 C.ar    
  20 C20           -0.3612     5.1327    -2.9172 C.ar    
  21 C21           -1.2855     5.9373    -3.5542 C.ar    
  22 C22           -1.2064     7.3127    -3.4340 C.ar    
  23 C23           -0.1995     7.8870    -2.6802 C.ar    
  24 C24            4.3289    -1.0273    -1.6667 C.3     
  25 C25            4.9170    -2.1385    -2.5386 C.3     
  26 C26            2.8138    -1.2112    -1.5594 C.3     
  27 C27            4.6342     0.3323    -2.2986 C.3     
  28 H28           -0.3781     2.5829     0.7450 H       
  29 H29           -1.0672     0.5432     1.9878 H       
  30 H30            0.5760    -1.2401     2.3876 H       
  31 H31            3.0090     3.2738    -0.1853 H       
  32 H32            2.5189     5.1582    -1.4798 H       
  33 H33            4.9775     0.5840     2.6458 H       
  34 H34            6.4994    -1.2619     3.2235 H       
  35 H35            7.0263    -2.9932     1.5550 H       
  36 H36            6.0345    -2.8820    -0.6946 H       
  37 H37            1.5141     7.5371    -1.4520 H       
  38 H38           -0.4231     4.0587    -3.0120 H       
  39 H39           -2.0707     5.4919    -4.1470 H       
  40 H40           -1.9300     7.9397    -3.9337 H       
  41 H41           -0.1379     8.9616    -2.5916 H       
  42 H42            4.6995    -3.1071    -2.0884 H       
  43 H43            4.4741    -2.0926    -3.5335 H       
  44 H44            5.9964    -2.0076    -2.6150 H       
  45 H45            2.3755    -0.3391    -1.0741 H       
  46 H46            2.3898    -1.3231    -2.5573 H       
  47 H47            2.5967    -2.1022    -0.9704 H       
  48 H48            5.7136     0.4632    -2.3750 H       
  49 H49            4.1913     0.3782    -3.2935 H       
  50 H50            4.2152     1.1239    -1.6774 H       
@<TRIPOS>BOND
   1    1    2 ar
   2    1    6 ar
   3    1   28 1
   4    2    3 ar
   5    2   29 1
   6    3    4 ar
   7    3   30 1
   8    4    5 ar
   9    5    6 ar
  10    5   12 1
  11    6    7 1
  12    7    8 am
  13    7   31 1
  14    8    9 am
  15    8   10 2
  16    9   11 1
  17    9   32 1
  18   11   20 ar
  19   11   19 ar
  20   12   13 1
  21   13   14 ar
  22   13   18 ar
  23   14   15 ar
  24   14   33 1
  25   15   16 ar
  26   15   34 1
  27   16   17 ar
  28   16   35 1
  29   17   18 ar
  30   17   36 1
  31   18   24 1
  32   19   23 ar
  33   19   37 1
  34   20   21 ar
  35   20   38 1
  36   21   22 ar
  37   21   39 1
  38   22   23 ar
  39   22   40 1
  40   23   41 1
  41   24   25 1
  42   24   26 1
  43   24   27 1
  44   25   42 1
  45   25   43 1
  46   25   44 1
  47   26   45 1
  48   26   46 1
  49   26   47 1
  50   27   48 1
  51   27   49 1
  52   27   50 1

#	End of record

