#	Name: ASD02039081
#	Creating user name:	WinNT
#	Creation time:	15. 06. 2019 20:17

#	Modifying user name:	WinNT
#	Modification time:	15. 06. 2019 20:17

#	Program:	/corina/corina34_cracker 3.40 0067  02.08.2006

@<TRIPOS>MOLECULE
ASD02039081
  42   45    0    0    0
SMALL
NO_CHARGES


@<TRIPOS>ATOM
   1 N1             0.0235     1.2846    -0.3609 N.2     
   2 N2             0.0399    -0.0019    -0.3621 N.2     
   3 C3             1.2243     1.7332    -0.0876 C.2     
   4 O4             2.0203     0.6621     0.0883 O.3     
   5 C5             1.2410    -0.4221    -0.0920 C.2     
   6 N6             1.6033     3.0608     0.0028 N.pl3   
   7 C7             0.6408     4.0701    -0.0881 C.ar    
   8 C8             1.6809    -1.8603     0.0027 C.3     
   9 O9             2.1177    -2.3104    -1.2813 O.3     
  10 C10            2.5504    -3.5962    -1.3703 C.ar    
  11 C11            2.9857    -4.0921    -2.5831 C.ar    
  12 C12            2.5578    -4.4049    -0.2365 C.ar    
  13 C13            2.9937    -5.7097    -0.3077 C.ar    
  14 C14            3.4314    -6.2308    -1.5205 C.ar    
  15 C15            3.4301    -5.4154    -2.6681 C.ar    
  16 C16           -0.6614     3.8290     0.3295 C.ar    
  17 C17            0.9864     5.3184    -0.5911 C.ar    
  18 C18            0.0340     6.3143    -0.6801 C.ar    
  19 C19           -1.2637     6.0715    -0.2689 C.ar    
  20 C20           -1.6115     4.8304     0.2381 C.ar    
  21 N21            3.8714    -7.5357    -1.6127 N.am    
  22 C22            4.2946    -8.0419    -2.7841 C.2     
  23 C23            4.3085    -7.2675    -3.9638 C.2     
  24 C24            3.8931    -5.9770    -3.9386 C.2     
  25 O25            4.6763    -9.1986    -2.8282 O.2     
  26 F26           -2.8802     4.5962     0.6390 F       
  27 C27           -2.3001     7.1611    -0.3672 C.3     
  28 H28            2.5371     3.2910     0.1292 H       
  29 H29            2.5015    -1.9432     0.7153 H       
  30 H30            0.8451    -2.4745     0.3380 H       
  31 H31            2.9827    -3.4623    -3.4604 H       
  32 H32            2.2189    -4.0050     0.7077 H       
  33 H33            2.9958    -6.3277     0.5780 H       
  34 H34           -0.9321     2.8611     0.7248 H       
  35 H35            1.9997     5.5097    -0.9121 H       
  36 H36            0.3031     7.2843    -1.0712 H       
  37 H37            3.8757    -8.0957    -0.8206 H       
  38 H38            4.6548    -7.7032    -4.8893 H       
  39 H39            3.9002    -5.3774    -4.8369 H       
  40 H40           -2.7914     7.1087    -1.3387 H       
  41 H41           -3.0405     7.0305     0.4219 H       
  42 H42           -1.8179     8.1323    -0.2558 H       
@<TRIPOS>BOND
   1    1    2 1
   2    1    3 2
   3    2    5 2
   4    3    4 1
   5    3    6 1
   6    4    5 1
   7    5    8 1
   8    6    7 1
   9    6   28 1
  10    7   16 ar
  11    7   17 ar
  12    8    9 1
  13    8   29 1
  14    8   30 1
  15    9   10 1
  16   10   11 ar
  17   10   12 ar
  18   11   15 ar
  19   11   31 1
  20   12   13 ar
  21   12   32 1
  22   13   14 ar
  23   13   33 1
  24   14   15 ar
  25   14   21 1
  26   15   24 1
  27   16   20 ar
  28   16   34 1
  29   17   18 ar
  30   17   35 1
  31   18   19 ar
  32   18   36 1
  33   19   20 ar
  34   19   27 1
  35   20   26 1
  36   21   22 am
  37   21   37 1
  38   22   23 1
  39   22   25 2
  40   23   24 2
  41   23   38 1
  42   24   39 1
  43   27   40 1
  44   27   41 1
  45   27   42 1

#	End of record

