#	Name: ASD01816624
#	Creating user name:	WinNT
#	Creation time:	15. 06. 2019 19:35

#	Modifying user name:	WinNT
#	Modification time:	15. 06. 2019 19:35

#	Program:	/corina/corina34_cracker 3.40 0067  02.08.2006

@<TRIPOS>MOLECULE
ASD01816624
  41   44    0    0    0
SMALL
NO_CHARGES


@<TRIPOS>ATOM
   1 C1            -0.0167     1.3812     0.0096 C.ar    
   2 C2             0.0021    -0.0041     0.0020 C.ar    
   3 C3             1.1984    -0.6908    -0.0131 C.ar    
   4 C4             2.4015     0.0061    -0.0204 C.ar    
   5 C5             2.3789     1.4106    -0.0127 C.ar    
   6 C6             1.1664     2.0916     0.0022 C.ar    
   7 N7             3.6054    -0.6770    -0.0347 N.pl3   
   8 C8             4.7971    -0.0584    -0.0423 C.2     
   9 C9             4.9001     1.3105    -0.0364 C.2     
  10 C10            3.6673     2.1304    -0.0207 C.2     
  11 C11            5.9972     2.2731    -0.0422 C.2     
  12 N12            5.4244     3.4961    -0.0313 N.am    
  13 N13            4.0322     3.3795    -0.0185 N.2     
  14 O14            7.1917     2.0232    -0.0541 O.2     
  15 C15            6.1581     4.7641    -0.0316 C.3     
  16 C16            3.5781    -2.1418    -0.0413 C.3     
  17 C17            3.5556    -2.6374    -1.4643 C.ar    
  18 C18            4.7426    -2.8868    -2.1276 C.ar    
  19 C19            4.7233    -3.3418    -3.4324 C.ar    
  20 C20            3.5145    -3.5477    -4.0753 C.ar    
  21 C21            2.3262    -3.2975    -3.4100 C.ar    
  22 C22            2.3480    -2.8476    -2.1035 C.ar    
  23 F23            3.4943    -3.9920    -5.3510 F       
  24 C24            6.3973     5.2057    -1.4525 C.2     
  25 C25            6.0061     6.3931    -1.8440 C.2     
  26 H26           -0.9602     1.9068     0.0170 H       
  27 H27           -0.9288    -0.5516     0.0083 H       
  28 H28            1.2005    -1.7708    -0.0189 H       
  29 H29            1.1508     3.1714     0.0084 H       
  30 H30            5.6984    -0.6535    -0.0530 H       
  31 H31            5.5743     5.5219     0.4910 H       
  32 H32            7.1149     4.6304     0.4732 H       
  33 H33            4.4658    -2.5240     0.4626 H       
  34 H34            2.6862    -2.4908     0.4791 H       
  35 H35            5.6854    -2.7258    -1.6260 H       
  36 H36            5.6507    -3.5362    -3.9505 H       
  37 H37            1.3827    -3.4578    -3.9105 H       
  38 H38            1.4213    -2.6524    -1.5843 H       
  39 H39            6.8912     4.5434    -2.1480 H       
  40 H40            6.1776     6.7096    -2.8623 H       
  41 H41            5.5122     7.0555    -1.1485 H       
@<TRIPOS>BOND
   1    1    2 ar
   2    1    6 ar
   3    1   26 1
   4    2    3 ar
   5    2   27 1
   6    3    4 ar
   7    3   28 1
   8    4    5 ar
   9    4    7 1
  10    5    6 ar
  11    5   10 1
  12    6   29 1
  13    7    8 1
  14    7   16 1
  15    8    9 2
  16    8   30 1
  17    9   10 1
  18    9   11 1
  19   10   13 2
  20   11   12 am
  21   11   14 2
  22   12   13 1
  23   12   15 1
  24   15   24 1
  25   15   31 1
  26   15   32 1
  27   16   17 1
  28   16   33 1
  29   16   34 1
  30   17   18 ar
  31   17   22 ar
  32   18   19 ar
  33   18   35 1
  34   19   20 ar
  35   19   36 1
  36   20   21 ar
  37   20   23 1
  38   21   22 ar
  39   21   37 1
  40   22   38 1
  41   24   25 2
  42   24   39 1
  43   25   40 1
  44   25   41 1

#	End of record

