#	Name: ASD03082368
#	Creating user name:	WinNT
#	Creation time:	15. 06. 2019 20:27

#	Modifying user name:	WinNT
#	Modification time:	15. 06. 2019 20:27

#	Program:	/corina/corina34_cracker 3.40 0067  02.08.2006

@<TRIPOS>MOLECULE
ASD03082368
  53   55    0    0    0
SMALL
NO_CHARGES


@<TRIPOS>ATOM
   1 C1            -2.8862     0.8691     1.4784 C.ar    
   2 C2            -2.7359    -0.2793     0.7124 C.ar    
   3 C3            -3.8257    -0.8064     0.0312 C.ar    
   4 C4            -5.0573    -0.1882     0.1163 C.ar    
   5 C5            -5.2066     0.9592     0.8819 C.ar    
   6 C6            -4.1191     1.4862     1.5623 C.ar    
   7 N7            -1.4870    -0.9050     0.6263 N.pl3   
   8 C8            -1.4094    -2.2839     0.4053 C.2     
   9 C9            -0.2302    -3.0206     0.1998 C.2     
  10 N10           -2.4248    -3.1144     0.3596 N.2     
  11 N11           -1.9272    -4.4014     0.1183 N.pl3   
  12 C12           -0.5744    -4.3160     0.0242 C.2     
  13 C13           -2.6878    -5.5685    -0.0001 C.ar    
  14 C14           -2.2782    -6.7533     0.6083 C.ar    
  15 C15           -3.8783    -5.5755    -0.7248 C.ar    
  16 C16           -4.6001    -6.7476    -0.8174 C.ar    
  17 N17           -4.1764    -7.8510    -0.2305 N.ar    
  18 C18           -3.0575    -7.8835     0.4679 C.ar    
  19 C19           -5.8889    -6.7680    -1.5981 C.3     
  20 H20           -2.7456    -8.8073     0.9324 H       
  21 C21            0.3726    -5.4604    -0.2303 C.3     
  22 C22            0.9790    -5.9249     1.0953 C.3     
  23 C23            1.8322    -7.1723     0.8565 C.3     
  24 C24            2.3369    -7.7094     2.1973 C.3     
  25 O25            1.7966    -4.8849     1.6356 O.3     
  26 C26           -4.2825     2.7325     2.3936 C.3     
  27 F27           -3.0564     3.0674     2.9781 F       
  28 F28           -4.7128     3.7842     1.5775 F       
  29 F29           -5.2302     2.5030     3.3968 F       
  30 O30           -6.4201     1.5674     0.9652 O.3     
  31 C31           -7.4962     0.9705     0.2387 C.3     
  32 H32           -2.0405     1.2771     2.0119 H       
  33 H33           -3.7096    -1.6994    -0.5651 H       
  34 H34           -5.9047    -0.5976    -0.4135 H       
  35 H35           -0.6753    -0.3824     0.7199 H       
  36 H36            0.7735    -2.6222     0.1849 H       
  37 H37           -1.3634    -6.7867     1.1814 H       
  38 H38           -4.2311    -4.6757    -1.2069 H       
  39 H39           -5.6806    -7.0253    -2.6366 H       
  40 H40           -6.5625    -7.5093    -1.1682 H       
  41 H41           -6.3558    -5.7840    -1.5543 H       
  42 H42           -0.1704    -6.2858    -0.6905 H       
  43 H43            1.1685    -5.1316    -0.8985 H       
  44 H44            0.1796    -6.1606     1.7978 H       
  45 H45            1.2302    -7.9352     0.3629 H       
  46 H46            2.6825    -6.9154     0.2247 H       
  47 H47            1.4867    -7.9662     2.8291 H       
  48 H48            2.9448    -8.5980     2.0271 H       
  49 H49            2.9390    -6.9464     2.6909 H       
  50 H50            2.5302    -4.6234     1.0623 H       
  51 H51           -8.4046     1.5533     0.3908 H       
  52 H52           -7.2508     0.9506    -0.8231 H       
  53 H53           -7.6539    -0.0477     0.5944 H       
@<TRIPOS>BOND
   1    1    2 ar
   2    1    6 ar
   3    1   32 1
   4    2    3 ar
   5    2    7 1
   6    3    4 ar
   7    3   33 1
   8    4    5 ar
   9    4   34 1
  10    5    6 ar
  11    5   30 1
  12    6   26 1
  13    7    8 1
  14    7   35 1
  15    8    9 1
  16    8   10 2
  17    9   12 2
  18    9   36 1
  19   10   11 1
  20   11   12 1
  21   11   13 1
  22   12   21 1
  23   13   14 ar
  24   13   15 ar
  25   14   18 ar
  26   14   37 1
  27   15   16 ar
  28   15   38 1
  29   16   17 ar
  30   16   19 1
  31   17   18 ar
  32   18   20 1
  33   19   39 1
  34   19   40 1
  35   19   41 1
  36   21   22 1
  37   21   42 1
  38   21   43 1
  39   22   23 1
  40   22   25 1
  41   22   44 1
  42   23   24 1
  43   23   45 1
  44   23   46 1
  45   24   47 1
  46   24   48 1
  47   24   49 1
  48   25   50 1
  49   26   27 1
  50   26   28 1
  51   26   29 1
  52   30   31 1
  53   31   51 1
  54   31   52 1
  55   31   53 1

#	End of record

