#	Name: ASD01122012
#	Creating user name:	WinNT
#	Creation time:	15. 06. 2019 18:59

#	Modifying user name:	WinNT
#	Modification time:	15. 06. 2019 18:59

#	Program:	/corina/corina34_cracker 3.40 0067  02.08.2006

@<TRIPOS>MOLECULE
ASD01122012
  40   41    0    0    0
SMALL
NO_CHARGES


@<TRIPOS>ATOM
   1 C1             0.1433     1.4769    -0.1356 C.2     
   2 S2             0.0673    -0.2770    -0.2705 S.3     
   3 C3            -1.6643    -0.2307     0.0512 C.2     
   4 C4            -2.0275     1.0537     0.2269 C.2     
   5 N5            -1.0384     1.9426     0.1260 N.2     
   6 C6            -3.4214     1.4499     0.5163 C.2     
   7 C7            -3.8125     2.3974     1.4096 C.2     
   8 C8            -5.2210     2.4459     1.3598 C.2     
   9 C9            -5.6151     1.5357     0.4489 C.2     
  10 O10           -4.5247     0.9391    -0.0630 O.3     
  11 C11           -2.5819    -1.4244     0.1178 C.3     
  12 N12            1.2897     2.2410    -0.2807 N.pl3   
  13 C13           -2.7420    -1.8638     1.5746 C.3     
  14 C14           -3.7810    -2.9838     1.6581 C.3     
  15 C15           -1.3998    -2.3727     2.1042 C.3     
  16 P16           -7.3320     1.1791    -0.0155 P.3     
  17 O17           -7.9247     2.3694    -0.6654 O.2     
  18 O18           -7.3641    -0.0630    -1.0393 O.3     
  19 C19           -8.5617    -0.5207    -1.6704 C.3     
  20 O20           -8.1789     0.8099     1.3030 O.3     
  21 C21           -9.5892     0.5801     1.2831 C.3     
  22 H22           -3.1689     2.9971     2.0361 H       
  23 H23           -5.8624     3.0906     1.9424 H       
  24 H24           -3.5566    -1.1566    -0.2901 H       
  25 H25           -2.1568    -2.2423    -0.4638 H       
  26 H26            2.1379     1.8113    -0.4725 H       
  27 H27            1.2441     3.2057    -0.1905 H       
  28 H28           -3.0720    -1.0165     2.1756 H       
  29 H29           -3.4510    -3.8312     1.0572 H       
  30 H30           -3.8951    -3.2969     2.6960 H       
  31 H31           -4.7372    -2.6213     1.2808 H       
  32 H32           -1.5361    -2.7834     3.1047 H       
  33 H33           -1.0187    -3.1496     1.4415 H       
  34 H34           -0.6885    -1.5478     2.1439 H       
  35 H35           -8.3313    -1.3687    -2.3153 H       
  36 H36           -9.2791    -0.8274    -0.9093 H       
  37 H37           -8.9881     0.2850    -2.2681 H       
  38 H38           -9.8116    -0.2569     0.6212 H       
  39 H39           -9.9338     0.3480     2.2908 H       
  40 H40          -10.0979     1.4739     0.9220 H       
@<TRIPOS>BOND
   1    1    2 1
   2    1   12 1
   3    1    5 2
   4    2    3 1
   5    3    4 2
   6    3   11 1
   7    4    5 1
   8    4    6 1
   9    6    7 2
  10    6   10 1
  11    7    8 1
  12    7   22 1
  13    8    9 2
  14    8   23 1
  15    9   10 1
  16    9   16 1
  17   11   13 1
  18   11   24 1
  19   11   25 1
  20   12   26 1
  21   12   27 1
  22   13   14 1
  23   13   15 1
  24   13   28 1
  25   14   29 1
  26   14   30 1
  27   14   31 1
  28   15   32 1
  29   15   33 1
  30   15   34 1
  31   16   17 2
  32   16   18 1
  33   16   20 1
  34   18   19 1
  35   19   35 1
  36   19   36 1
  37   19   37 1
  38   20   21 1
  39   21   38 1
  40   21   39 1
  41   21   40 1

#	End of record

