#	Name: ASD07300216
#	Creating user name:	WinNT
#	Creation time:	15. 06. 2019 21:09

#	Modifying user name:	WinNT
#	Modification time:	15. 06. 2019 21:09

#	Program:	/corina/corina34_cracker 3.40 0067  02.08.2006

@<TRIPOS>MOLECULE
ASD07300216
  48   52    0    0    0
SMALL
NO_CHARGES


@<TRIPOS>ATOM
   1 C1            -0.0169     1.3941     0.0097 C.ar    
   2 C2             0.0021    -0.0041     0.0020 C.ar    
   3 C3             1.2199    -0.6674    -0.0128 C.ar    
   4 C4             2.3808     0.0923    -0.0194 C.ar    
   5 C5             2.2878     1.4713    -0.0111 C.ar    
   6 N6             1.1161     2.0768     0.0026 N.ar    
   7 C7            -2.1138     0.6623     0.0347 C.2     
   8 N8            -1.3542     1.7734     0.0301 N.am    
   9 N9            -1.3234    -0.4279     0.0124 N.am    
  10 O10           -3.3304     0.6454     0.0517 O.2     
  11 C11           -1.8318     3.0929     0.0444 C.ar    
  12 C12           -3.1985     3.3361     0.0644 C.ar    
  13 C13           -3.6687     4.6341     0.0780 C.ar    
  14 C14           -2.7743     5.6967     0.0721 C.ar    
  15 C15           -1.4070     5.4530     0.0526 C.ar    
  16 C16           -0.9374     4.1547     0.0443 C.ar    
  17 N17           -3.2503     7.0119     0.0854 N.pl3   
  18 C18           -2.3068     8.1325     0.0792 C.3     
  19 O19           -3.4728    10.0994    -0.9968 O.3     
  20 C20           -3.0700     9.4319     0.0962 C.2     
  21 N21           -3.4320    10.0661     1.1703 N.2     
  22 C22           -4.0993    11.1959     0.8088 C.ar    
  23 C23           -4.1232    11.2132    -0.5943 C.ar    
  24 C24           -4.7017    12.2319     1.5237 C.ar    
  25 C25           -5.3148    13.2629     0.8473 C.ar    
  26 C26           -5.3373    13.2771    -0.5412 C.ar    
  27 C27           -4.7441    12.2580    -1.2610 C.ar    
  28 F28           -5.9426    14.2944    -1.1923 F       
  29 C29           -1.7801    -1.8199     0.0088 C.3     
  30 C30           -1.9252    -2.3127     1.4500 C.3     
  31 H31            1.2635    -1.7465    -0.0186 H       
  32 H32            3.3476    -0.3890    -0.0305 H       
  33 H33            3.1908     2.0638    -0.0162 H       
  34 H34           -3.8939     2.5098     0.0690 H       
  35 H35           -4.7319     4.8232     0.0928 H       
  36 H36           -0.7113     6.2790     0.0477 H       
  37 H37            0.1257     3.9652     0.0332 H       
  38 H38           -4.2052     7.1819     0.0988 H       
  39 H39           -1.6682     8.0747     0.9607 H       
  40 H40           -1.6913     8.0843    -0.8191 H       
  41 H41           -4.6875    12.2250     2.6036 H       
  42 H42           -5.7812    14.0650     1.4000 H       
  43 H43           -4.7645    12.2750    -2.3406 H       
  44 H44           -2.7439    -1.8848    -0.4961 H       
  45 H45           -1.0527    -2.4396    -0.5156 H       
  46 H46           -2.2649    -3.3484     1.4474 H       
  47 H47           -0.9614    -2.2478     1.9549 H       
  48 H48           -2.6525    -1.6931     1.9744 H       
@<TRIPOS>BOND
   1    1    2 ar
   2    1    6 ar
   3    1    8 1
   4    2    3 ar
   5    2    9 1
   6    3    4 ar
   7    3   31 1
   8    4    5 ar
   9    4   32 1
  10    5    6 ar
  11    5   33 1
  12    7    8 am
  13    7    9 am
  14    7   10 2
  15    8   11 1
  16    9   29 1
  17   11   12 ar
  18   11   16 ar
  19   12   13 ar
  20   12   34 1
  21   13   14 ar
  22   13   35 1
  23   14   15 ar
  24   14   17 1
  25   15   16 ar
  26   15   36 1
  27   16   37 1
  28   17   18 1
  29   17   38 1
  30   18   20 1
  31   18   39 1
  32   18   40 1
  33   19   20 1
  34   19   23 1
  35   20   21 2
  36   21   22 1
  37   22   23 ar
  38   22   24 ar
  39   23   27 ar
  40   24   25 ar
  41   24   41 1
  42   25   26 ar
  43   25   42 1
  44   26   27 ar
  45   26   28 1
  46   27   43 1
  47   29   30 1
  48   29   44 1
  49   29   45 1
  50   30   46 1
  51   30   47 1
  52   30   48 1

#	End of record

