#	Name: ASD00069116
#	Creating user name:	WinNT
#	Creation time:	15. 06. 2019 18:29

#	Modifying user name:	WinNT
#	Modification time:	15. 06. 2019 18:29

#	Program:	/corina/corina34_cracker 3.40 0067  02.08.2006

@<TRIPOS>MOLECULE
ASD00069116
  47   50    0    0    0
SMALL
NO_CHARGES


@<TRIPOS>ATOM
   1 C1            -0.0636     1.2964    -0.5899 C.2     
   2 N2            -0.0206     0.0044    -0.3438 N.2     
   3 C3             1.2304    -0.4330    -0.5255 C.2     
   4 C4             2.0009     0.6307    -0.9008 C.2     
   5 N5             1.1897     1.7137    -0.9409 N.pl3   
   6 C6            -1.2626     2.1488    -0.5071 C.2     
   7 O7            -1.1832     3.3362    -0.7586 O.2     
   8 N8            -2.4473     1.6127    -0.1526 N.am    
   9 N9             1.7284    -3.9914     0.0088 N.pl3   
  10 N10            3.0423    -3.5692    -0.2276 N.2     
  11 C11            3.0314    -2.2800    -0.4424 C.2     
  12 C12            1.7000    -1.8318    -0.3497 C.2     
  13 C13            0.9194    -2.9143    -0.0699 C.2     
  14 C14           -3.5610     2.4399     0.0387 C.ar    
  15 C15           -4.8455     1.8980     0.0210 C.ar    
  16 C16           -5.9453     2.7238     0.2118 C.ar    
  17 C17           -5.7636     4.0804     0.4187 C.ar    
  18 C18           -4.4891     4.6163     0.4355 C.ar    
  19 C19           -3.3887     3.7998     0.2520 C.ar    
  20 F20           -7.1920     2.2037     0.1951 F       
  21 N21           -5.0259     0.5249    -0.1891 N.3     
  22 C22           -5.7496     0.2748    -1.4421 C.3     
  23 C23           -5.8007    -1.2308    -1.7115 C.3     
  24 C24           -6.5052    -1.9294    -0.5452 C.3     
  25 C25           -5.7595    -1.6134     0.7542 C.3     
  26 C26           -5.7096    -0.0967     0.9522 C.3     
  27 N27           -6.5430    -1.4818    -2.9541 N.3     
  28 H28            3.0575     0.6114    -1.1231 H       
  29 H29            1.4496     2.6182    -1.1757 H       
  30 H30           -2.5285     0.6539    -0.0300 H       
  31 H31            1.4477    -4.9015     0.1930 H       
  32 H32            3.8939    -1.6653    -0.6538 H       
  33 H33           -0.1522    -2.9104     0.0642 H       
  34 H34           -6.6196     4.7220     0.5670 H       
  35 H35           -4.3525     5.6754     0.5969 H       
  36 H36           -2.3946     4.2216     0.2707 H       
  37 H37           -6.7646     0.6636    -1.3591 H       
  38 H38           -5.2360     0.7736    -2.2640 H       
  39 H39           -4.7864    -1.6178    -1.8084 H       
  40 H40           -7.5320    -1.5709    -0.4724 H       
  41 H41           -6.5054    -3.0065    -0.7124 H       
  42 H42           -6.2808    -2.0731     1.5939 H       
  43 H43           -4.7445    -2.0064     0.6962 H       
  44 H44           -5.1669     0.1322     1.8693 H       
  45 H45           -6.7247     0.2937     1.0240 H       
  46 H46           -6.5905    -2.4697    -3.1537 H       
  47 H47           -7.4661    -1.0766    -2.9120 H       
@<TRIPOS>BOND
   1    1    2 2
   2    1    5 1
   3    1    6 1
   4    2    3 1
   5    3    4 2
   6    3   12 1
   7    4    5 1
   8    4   28 1
   9    5   29 1
  10    6    7 2
  11    6    8 am
  12    8   14 1
  13    8   30 1
  14    9   10 1
  15    9   13 1
  16    9   31 1
  17   10   11 2
  18   11   12 1
  19   11   32 1
  20   12   13 2
  21   13   33 1
  22   14   15 ar
  23   14   19 ar
  24   15   16 ar
  25   15   21 1
  26   16   17 ar
  27   16   20 1
  28   17   18 ar
  29   17   34 1
  30   18   19 ar
  31   18   35 1
  32   19   36 1
  33   21   22 1
  34   21   26 1
  35   22   23 1
  36   22   37 1
  37   22   38 1
  38   23   24 1
  39   23   27 1
  40   23   39 1
  41   24   25 1
  42   24   40 1
  43   24   41 1
  44   25   26 1
  45   25   42 1
  46   25   43 1
  47   26   44 1
  48   26   45 1
  49   27   46 1
  50   27   47 1

#	End of record

