#	Name: ASD01812826
#	Creating user name:	WinNT
#	Creation time:	15. 06. 2019 19:29

#	Modifying user name:	WinNT
#	Modification time:	15. 06. 2019 19:29

#	Program:	/corina/corina34_cracker 3.40 0067  02.08.2006

@<TRIPOS>MOLECULE
ASD01812826
  55   59    0    0    0
SMALL
NO_CHARGES


@<TRIPOS>ATOM
   1 C1            -0.0167     1.3771     0.0096 C.ar    
   2 C2             0.0021    -0.0041     0.0020 C.ar    
   3 C3             1.2089    -0.6870    -0.0132 C.ar    
   4 C4             2.3942     0.0077    -0.0204 C.ar    
   5 C5             2.3945     1.4061    -0.0129 C.ar    
   6 C6             1.1728     2.0923     0.0021 C.ar    
   7 C7             3.8413    -0.4177    -0.0365 C.3     
   8 N8             4.6316     0.8187    -0.0374 N.am    
   9 C9             3.7921     1.8684    -0.0237 C.2     
  10 C10            6.0945     0.8963    -0.0509 C.3     
  11 C11            6.5825     0.9305    -1.4763 C.ar    
  12 C12            6.7423     2.1437    -2.1210 C.ar    
  13 C13            7.1890     2.1808    -3.4265 C.ar    
  14 C14            7.4795     0.9934    -4.0945 C.ar    
  15 C15            7.3173    -0.2257    -3.4403 C.ar    
  16 C16            6.8746    -0.2511    -2.1332 C.ar    
  17 O17            1.1528     3.4488     0.0092 O.3     
  18 O18            4.1379     3.0340    -0.0211 O.2     
  19 C19            7.9599     1.0271    -5.4990 C.2     
  20 C20            8.2744    -0.0539    -6.2697 C.2     
  21 C21            8.1680     2.1806    -6.2800 C.2     
  22 N22            8.5909     1.8029    -7.4573 N.2     
  23 N23            8.6612     0.4046    -7.4771 N.pl3   
  24 C24            9.0866    -0.4179    -8.6123 C.3     
  25 C25            1.1552     4.0910     1.2857 C.3     
  26 C26            1.1310     5.6087     1.0932 C.3     
  27 Br27          -1.6689     2.2968     0.0224 Br      
  28 O28           -0.1157     6.0046     0.5095 O.3     
  29 C29           -0.8247     6.8723     1.4084 C.3     
  30 C30            0.2684     7.5059     2.3054 C.3     
  31 C31            1.2495     6.3122     2.4622 C.3     
  32 H32           -0.9271    -0.5545     0.0083 H       
  33 H33            1.2171    -1.7670    -0.0191 H       
  34 H34            4.0686    -1.0071     0.8519 H       
  35 H35            4.0515    -0.9974    -0.9353 H       
  36 H36            6.4151     1.8015     0.4647 H       
  37 H37            6.5093     0.0240     0.4543 H       
  38 H38            6.5167     3.0637    -1.6022 H       
  39 H39            7.3127     3.1286    -3.9293 H       
  40 H40            7.5412    -1.1491    -3.9538 H       
  41 H41            6.7521    -1.1956    -1.6239 H       
  42 H42            8.2230    -1.0894    -5.9672 H       
  43 H43            8.0062     3.1998    -5.9614 H       
  44 H44            8.2199    -0.6698    -9.2235 H       
  45 H45            9.8064     0.1373    -9.2138 H       
  46 H46            9.5500    -1.3333    -8.2442 H       
  47 H47            0.2749     3.7822     1.8494 H       
  48 H48            2.0546     3.8085     1.8329 H       
  49 H49            1.9547     5.9125     0.4472 H       
  50 H50           -1.3516     7.6462     0.8503 H       
  51 H51           -1.5255     6.2981     2.0144 H       
  52 H52            0.7490     8.3463     1.8046 H       
  53 H53           -0.1408     7.8074     3.2696 H       
  54 H54            0.9299     5.6506     3.2674 H       
  55 H55            2.2668     6.6658     2.6299 H       
@<TRIPOS>BOND
   1    1    2 ar
   2    1    6 ar
   3    1   27 1
   4    2    3 ar
   5    2   32 1
   6    3    4 ar
   7    3   33 1
   8    4    7 1
   9    4    5 ar
  10    5    6 ar
  11    5    9 1
  12    6   17 1
  13    7    8 1
  14    7   34 1
  15    7   35 1
  16    8    9 am
  17    8   10 1
  18    9   18 2
  19   10   11 1
  20   10   36 1
  21   10   37 1
  22   11   12 ar
  23   11   16 ar
  24   12   13 ar
  25   12   38 1
  26   13   14 ar
  27   13   39 1
  28   14   15 ar
  29   14   19 1
  30   15   16 ar
  31   15   40 1
  32   16   41 1
  33   17   25 1
  34   19   21 1
  35   19   20 2
  36   20   23 1
  37   20   42 1
  38   21   22 2
  39   21   43 1
  40   22   23 1
  41   23   24 1
  42   24   44 1
  43   24   45 1
  44   24   46 1
  45   25   26 1
  46   25   47 1
  47   25   48 1
  48   26   28 1
  49   26   31 1
  50   26   49 1
  51   28   29 1
  52   29   30 1
  53   29   50 1
  54   29   51 1
  55   30   31 1
  56   30   52 1
  57   30   53 1
  58   31   54 1
  59   31   55 1

#	End of record

