#	Name: ASD01915976
#	Creating user name:	WinNT
#	Creation time:	15. 06. 2019 20:06

#	Modifying user name:	WinNT
#	Modification time:	15. 06. 2019 20:06

#	Program:	/corina/corina34_cracker 3.40 0067  02.08.2006

@<TRIPOS>MOLECULE
ASD01915976
  41   44    0    0    0
SMALL
NO_CHARGES


@<TRIPOS>ATOM
   1 C1            -0.0167     1.3778     0.0096 C.2     
   2 C2             0.0021    -0.0041     0.0020 C.2     
   3 C3            -1.3061    -0.7781    -0.0015 C.3     
   4 C4            -2.3693     0.0496     0.7180 C.3     
   5 N5            -2.4010     1.4359     0.2672 N.am    
   6 C6            -1.2676     2.1378     0.0349 C.2     
   7 O7            -1.2873     3.3418    -0.1448 O.2     
   8 S8             1.6346     1.9576    -0.0030 S.3     
   9 C9             2.2093     0.3463    -0.0096 C.2     
  10 N10            1.2158    -0.4933    -0.0052 N.2     
  11 C11            4.4732     1.0547    -0.0204 C.3     
  12 C12            5.8643     0.4753    -0.0295 C.ar    
  13 C13            6.0434    -0.8923    -0.0338 C.ar    
  14 C14            6.9750     1.3217    -0.0394 C.ar    
  15 C15            8.2602     0.7764    -0.0483 C.ar    
  16 C16            7.3202    -1.4261    -0.0427 C.ar    
  17 O17            3.5154    -0.0058    -0.0177 O.3     
  18 C18           -3.6399     2.0588     0.0686 C.ar    
  19 C19            8.4249    -0.5934    -0.0472 C.ar    
  20 C20           -4.2595     1.9961    -1.1746 C.ar    
  21 C21           -4.2538     2.7346     1.1141 C.ar    
  22 C22           -5.4758     3.3478     0.9166 C.ar    
  23 C23           -6.0895     3.2893    -0.3234 C.ar    
  24 C24           -5.4828     2.6117    -1.3673 C.ar    
  25 F25           -7.2848     3.8897    -0.5132 F       
  26 F26           -3.6669     1.3352    -2.1931 F       
  27 C27            6.7965     2.7426    -0.0409 C.1     
  28 N28            6.6550     3.8697    -0.0421 N.1     
  29 H29           -1.6194    -0.9615    -1.0292 H       
  30 H30           -1.1701    -1.7277     0.5162 H       
  31 H31           -3.3459    -0.4008     0.5408 H       
  32 H32           -2.1646     0.0320     1.7885 H       
  33 H33            4.3403     1.6666     0.8719 H       
  34 H34            4.3305     1.6710    -0.9080 H       
  35 H35            5.1853    -1.5481    -0.0299 H       
  36 H36            9.1235     1.4254    -0.0563 H       
  37 H37            7.4547    -2.4976    -0.0457 H       
  38 H38            9.4185    -1.0166    -0.0544 H       
  39 H39           -3.7764     2.7806     2.0818 H       
  40 H40           -5.9533     3.8732     1.7304 H       
  41 H41           -5.9630     2.5676    -2.3337 H       
@<TRIPOS>BOND
   1    1    2 2
   2    1    8 1
   3    1    6 1
   4    2    3 1
   5    2   10 1
   6    3    4 1
   7    3   29 1
   8    3   30 1
   9    4    5 1
  10    4   31 1
  11    4   32 1
  12    5    6 am
  13    5   18 1
  14    6    7 2
  15    8    9 1
  16    9   10 2
  17    9   17 1
  18   11   12 1
  19   11   17 1
  20   11   33 1
  21   11   34 1
  22   12   13 ar
  23   12   14 ar
  24   13   16 ar
  25   13   35 1
  26   14   15 ar
  27   14   27 1
  28   15   19 ar
  29   15   36 1
  30   16   19 ar
  31   16   37 1
  32   18   20 ar
  33   18   21 ar
  34   19   38 1
  35   20   26 1
  36   20   24 ar
  37   21   22 ar
  38   21   39 1
  39   22   23 ar
  40   22   40 1
  41   23   24 ar
  42   23   25 1
  43   24   41 1
  44   27   28 3

#	End of record

