#	Name: ASD01231148
#	Creating user name:	WinNT
#	Creation time:	15. 06. 2019 19:15

#	Modifying user name:	WinNT
#	Modification time:	15. 06. 2019 19:15

#	Program:	/corina/corina34_cracker 3.40 0067  02.08.2006

@<TRIPOS>MOLECULE
ASD01231148
  43   46    0    0    0
SMALL
NO_CHARGES


@<TRIPOS>ATOM
   1 S1             0.0120     1.6381     0.0108 S.3     
   2 N2             0.0216    -0.0071     0.0016 N.2     
   3 C3             1.0559    -0.7351     0.1350 C.2     
   4 N4             2.3392    -0.2444     0.3302 N.pl3   
   5 C5             2.5671     1.1060     0.8312 C.3     
   6 C6             1.7621     2.1007    -0.0060 C.3     
   7 C7             0.9375    -2.2505     0.1067 C.3     
   8 C8             1.9323    -2.8020     1.1309 C.3     
   9 C9             3.3646    -2.4410     0.7640 C.3     
  10 C10            3.4611    -1.1279    -0.0017 C.3     
  11 O11           -0.3910    -2.6413     0.4595 O.3     
  12 C12           -2.5679    -3.1418    -0.2856 C.ar    
  13 C13           -1.3117    -2.6690    -0.5395 C.ar    
  14 C14           -0.9612    -2.2127    -1.8136 C.ar    
  15 C15           -1.8609    -2.2277    -2.8338 C.ar    
  16 C16           -3.1624    -2.7079    -2.6088 C.ar    
  17 C17           -4.1158    -2.7363    -3.6416 C.ar    
  18 C18           -5.3672    -3.2065    -3.3919 C.ar    
  19 C19           -5.7227    -3.6643    -2.1191 C.ar    
  20 C20           -4.8217    -3.6509    -1.0929 C.ar    
  21 C21           -3.5204    -3.1713    -1.3174 C.ar    
  22 O22           -6.9812    -4.1279    -1.9006 O.3     
  23 C23           -7.8789    -4.1166    -3.0123 C.3     
  24 H24            2.2494     1.1661     1.8721 H       
  25 H25            3.6280     1.3460     0.7602 H       
  26 H26            2.1296     2.0919    -1.0321 H       
  27 H27            1.8766     3.1014     0.4107 H       
  28 H28            1.1833    -2.6234    -0.8875 H       
  29 H29            1.7003    -2.3879     2.1121 H       
  30 H30            1.8373    -3.8871     1.1716 H       
  31 H31            3.9524    -2.3594     1.6783 H       
  32 H32            3.7823    -3.2384     0.1494 H       
  33 H33            3.4493    -1.3354    -1.0716 H       
  34 H34            4.3965    -0.6311     0.2557 H       
  35 H35           -2.8258    -3.4955     0.7017 H       
  36 H36            0.0379    -1.8426    -1.9904 H       
  37 H37           -1.5761    -1.8718    -3.8129 H       
  38 H38           -3.8556    -2.3857    -4.6294 H       
  39 H39           -6.0969    -3.2265    -4.1878 H       
  40 H40           -5.1081    -4.0066    -0.1142 H       
  41 H41           -8.0014    -3.0943    -3.3700 H       
  42 H42           -7.4736    -4.7356    -3.8128 H       
  43 H43           -8.8463    -4.5114    -2.7021 H       
@<TRIPOS>BOND
   1    1    2 1
   2    1    6 1
   3    2    3 2
   4    3    4 1
   5    3    7 1
   6    4    5 1
   7    4   10 1
   8    5    6 1
   9    5   24 1
  10    5   25 1
  11    6   26 1
  12    6   27 1
  13    7    8 1
  14    7   11 1
  15    7   28 1
  16    8    9 1
  17    8   29 1
  18    8   30 1
  19    9   10 1
  20    9   31 1
  21    9   32 1
  22   10   33 1
  23   10   34 1
  24   11   13 1
  25   12   13 ar
  26   12   21 ar
  27   12   35 1
  28   13   14 ar
  29   14   15 ar
  30   14   36 1
  31   15   16 ar
  32   15   37 1
  33   16   17 ar
  34   16   21 ar
  35   17   18 ar
  36   17   38 1
  37   18   19 ar
  38   18   39 1
  39   19   20 ar
  40   19   22 1
  41   20   21 ar
  42   20   40 1
  43   22   23 1
  44   23   41 1
  45   23   42 1
  46   23   43 1

#	End of record

