#	Name: ASD01680113
#	Creating user name:	WinNT
#	Creation time:	15. 06. 2019 19:22

#	Modifying user name:	WinNT
#	Modification time:	15. 06. 2019 19:22

#	Program:	/corina/corina34_cracker 3.40 0067  02.08.2006

@<TRIPOS>MOLECULE
ASD01680113
  86   89    0    0    0
SMALL
NO_CHARGES


@<TRIPOS>ATOM
   1 C1            -0.8991     1.3667    -0.3422 C.2     
   2 C2            -0.8175    -0.1381    -0.3456 C.3     
   3 C3            -1.5340    -0.6849    -1.5819 C.3     
   4 O4             0.1128     2.0266    -0.3609 O.2     
   5 O5            -2.0961     1.9739    -0.3238 O.3     
   6 N6             0.5879    -0.5509    -0.3733 N.am    
   7 S7             1.3746    -0.9059     1.0400 S.o2    
   8 O8             2.6911    -1.2998     0.6784 O.2     
   9 O9             1.1014     0.1664     1.9316 O.2     
  10 C10            0.5989    -2.3321     1.7246 C.ar    
  11 C11           -0.3477    -2.1923     2.7223 C.ar    
  12 C12           -0.9562    -3.3113     3.2594 C.ar    
  13 C13           -0.6185    -4.5700     2.7986 C.ar    
  14 C14            0.3275    -4.7098     1.8004 C.ar    
  15 C15            0.9328    -3.5906     1.2602 C.ar    
  16 C16            1.9603    -3.7426     0.1683 C.3     
  17 C17           -1.2812    -5.7899     3.3849 C.3     
  18 C18           -0.7159    -0.8200     3.2246 C.3     
  19 N19           -1.3530    -2.1371    -1.6490 N.am    
  20 C20           -1.9005    -2.8384    -2.6613 C.2     
  21 O21           -2.5431    -2.2673    -3.5168 O.2     
  22 C22           -1.7142    -4.3323    -2.7303 C.3     
  23 O23           -2.3835    -4.8429    -3.8850 O.3     
  24 N24           -4.5601    -6.9020    -4.3206 N.am    
  25 C25           -3.4469    -6.9924    -3.3583 C.3     
  26 C26           -2.2684    -6.2583    -4.0451 C.3     
  27 C27           -2.4678    -6.6683    -5.5281 C.3     
  28 C28           -4.0037    -6.7191    -5.6691 C.3     
  29 C29           -4.4057    -7.8948    -6.5618 C.3     
  30 N30           -3.9261    -7.6587    -7.9258 N.pl3   
  31 C31           -4.0831    -8.6402    -8.8974 C.ar    
  32 C32           -4.6966    -9.8447    -8.5679 C.ar    
  33 C33           -4.8463   -10.8125    -9.5444 C.ar    
  34 C34           -4.3757   -10.5425   -10.8228 C.ar    
  35 C35           -3.7769    -9.3258   -11.0799 C.ar    
  36 N36           -3.6524    -8.4185   -10.1296 N.ar    
  37 C37           -5.8705    -6.9801    -4.0155 C.2     
  38 N38           -6.2587    -7.0637    -2.7275 N.am    
  39 S39           -7.0420    -6.9731    -5.2639 S.2     
  40 C40           -7.6831    -7.1486    -2.3959 C.3     
  41 C41           -7.8465    -7.2319    -0.9001 C.ar    
  42 C42           -7.9786    -6.0759    -0.1537 C.ar    
  43 C43           -8.1284    -6.1523     1.2183 C.ar    
  44 C44           -8.1466    -7.3848     1.8440 C.ar    
  45 C45           -8.0155    -8.5409     1.0976 C.ar    
  46 C46           -7.8700    -8.4646    -0.2750 C.ar    
  47 H47           -1.2936    -0.5299     0.5532 H       
  48 H48           -2.5973    -0.4539    -1.5174 H       
  49 H49           -1.1160    -0.2249    -2.4773 H       
  50 H50           -2.0978     2.9409    -0.3224 H       
  51 H51            1.0576    -0.6162    -1.2195 H       
  52 H52           -1.6953    -3.2020     4.0393 H       
  53 H53            0.5916    -5.6933     1.4406 H       
  54 H54            2.9590    -3.7305     0.6050 H       
  55 H55            1.8020    -4.6881    -0.3504 H       
  56 H56            1.8632    -2.9192    -0.5393 H       
  57 H57           -2.1815    -6.0229     2.8164 H       
  58 H58           -0.5936    -6.6345     3.3387 H       
  59 H59           -1.5477    -5.5948     4.4237 H       
  60 H60           -1.3180    -0.3078     2.4741 H       
  61 H61           -1.2878    -0.9125     4.1480 H       
  62 H62            0.1916    -0.2472     3.4151 H       
  63 H63           -0.8390    -2.5938    -0.9648 H       
  64 H64           -0.6509    -4.5632    -2.7948 H       
  65 H65           -2.1323    -4.7923    -1.8349 H       
  66 H66           -3.7112    -6.4954    -2.4248 H       
  67 H67           -3.1886    -8.0352    -3.1739 H       
  68 H68           -1.3111    -6.6157    -3.6656 H       
  69 H69           -2.0438    -5.9184    -6.1959 H       
  70 H70           -2.0303    -7.6481    -5.7195 H       
  71 H71           -4.3678    -5.7849    -6.0967 H       
  72 H72           -3.9631    -8.8127    -6.1749 H       
  73 H73           -5.4915    -7.9903    -6.5699 H       
  74 H74           -3.4990    -6.8173    -8.1509 H       
  75 H75           -5.0508   -10.0217    -7.5630 H       
  76 H76           -5.3182   -11.7572    -9.3178 H       
  77 H77           -4.4769   -11.2773   -11.6078 H       
  78 H78           -3.4096    -9.1117   -12.0727 H       
  79 H79           -5.5950    -7.0677    -2.0202 H       
  80 H80           -8.1964    -6.2622    -2.7686 H       
  81 H81           -8.1115    -8.0379    -2.8582 H       
  82 H82           -7.9643    -5.1129    -0.6426 H       
  83 H83           -8.2308    -5.2491     1.8015 H       
  84 H84           -8.2629    -7.4445     2.9161 H       
  85 H85           -8.0294    -9.5038     1.5865 H       
  86 H86           -7.7713    -9.3680    -0.8585 H       
@<TRIPOS>BOND
   1    1    2 1
   2    1    4 2
   3    1    5 1
   4    2    3 1
   5    2    6 1
   6    2   47 1
   7    3   19 1
   8    3   48 1
   9    3   49 1
  10    5   50 1
  11    6    7 am
  12    6   51 1
  13    7    8 2
  14    7    9 2
  15    7   10 1
  16   10   11 ar
  17   10   15 ar
  18   11   12 ar
  19   11   18 1
  20   12   13 ar
  21   12   52 1
  22   13   14 ar
  23   13   17 1
  24   14   15 ar
  25   14   53 1
  26   15   16 1
  27   16   54 1
  28   16   55 1
  29   16   56 1
  30   17   57 1
  31   17   58 1
  32   17   59 1
  33   18   60 1
  34   18   61 1
  35   18   62 1
  36   19   20 am
  37   19   63 1
  38   20   21 2
  39   20   22 1
  40   22   23 1
  41   22   64 1
  42   22   65 1
  43   23   26 1
  44   24   25 1
  45   24   28 1
  46   24   37 am
  47   25   26 1
  48   25   66 1
  49   25   67 1
  50   26   27 1
  51   26   68 1
  52   27   28 1
  53   27   69 1
  54   27   70 1
  55   28   29 1
  56   28   71 1
  57   29   30 1
  58   29   72 1
  59   29   73 1
  60   30   31 1
  61   30   74 1
  62   31   32 ar
  63   31   36 ar
  64   32   33 ar
  65   32   75 1
  66   33   34 ar
  67   33   76 1
  68   34   35 ar
  69   34   77 1
  70   35   36 ar
  71   35   78 1
  72   37   38 am
  73   37   39 2
  74   38   40 1
  75   38   79 1
  76   40   41 1
  77   40   80 1
  78   40   81 1
  79   41   42 ar
  80   41   46 ar
  81   42   43 ar
  82   42   82 1
  83   43   44 ar
  84   43   83 1
  85   44   45 ar
  86   44   84 1
  87   45   46 ar
  88   45   85 1
  89   46   86 1

#	End of record

