#	Name: ASD09080142
#	Creating user name:	WinNT
#	Creation time:	15. 06. 2019 21:20

#	Modifying user name:	WinNT
#	Modification time:	15. 06. 2019 21:20

#	Program:	/corina/corina34_cracker 3.40 0067  02.08.2006

@<TRIPOS>MOLECULE
ASD09080142
  59   61    0    0    0
SMALL
NO_CHARGES


@<TRIPOS>ATOM
   1 C1             0.0157     1.2273    -0.4543 C.ar    
   2 C2             0.0156    -0.1531    -0.4003 C.ar    
   3 C3            -1.1886    -0.8430    -0.2773 C.ar    
   4 C4            -2.3873    -0.1363    -0.2093 C.ar    
   5 C5            -2.3768     1.2440    -0.2641 C.ar    
   6 C6            -1.1775     1.9251    -0.3810 C.ar    
   7 Cl7            1.5153     2.0885    -0.6070 Cl      
   8 Cl8           -3.8696     2.1261    -0.1800 Cl      
   9 C9            -1.1943    -2.3258    -0.2194 C.ar    
  10 C10           -2.3984    -3.0161    -0.0964 C.ar    
  11 C11            0.0039    -3.0331    -0.2936 C.ar    
  12 C12           -0.0073    -4.4122    -0.2392 C.ar    
  13 C13           -1.2051    -5.0921    -0.1113 C.ar    
  14 C14           -2.3979    -4.3952    -0.0429 C.ar    
  15 C15           -1.2109    -6.5980    -0.0524 C.3     
  16 C16           -1.0911    -7.0519     1.4038 C.3     
  17 C17           -1.2221    -8.5746     1.4757 C.3     
  18 N18            0.2131    -6.6483     1.9354 N.am    
  19 C19           -2.6329    -8.9858     1.0497 C.3     
  20 O20           -0.2659    -9.1768     0.6011 O.3     
  21 C21           -2.7216   -10.5118     0.9847 C.3     
  22 C22           -4.1323   -10.9230     0.5587 C.3     
  23 C23            0.3612    -6.4193     3.2552 C.2     
  24 C24            1.6712    -5.8977     3.7871 C.3     
  25 O25           -0.5598    -6.6330     4.0149 O.2     
  26 O26            1.5801    -5.7378     5.2042 O.3     
  27 C27            2.7761    -5.2451     5.8116 C.3     
  28 C28           -3.6468    -8.4589     2.0672 C.3     
  29 C29           -5.1463   -10.3961     1.5762 C.3     
  30 C30           -5.0576    -8.8701     1.6412 C.3     
  31 H31            0.9473    -0.6965    -0.4538 H       
  32 H32           -3.3233    -0.6667    -0.1142 H       
  33 H33           -1.1733     3.0043    -0.4236 H       
  34 H34           -3.3303    -2.4729    -0.0425 H       
  35 H35            0.9396    -2.5032    -0.3938 H       
  36 H36            0.9208    -4.9614    -0.2970 H       
  37 H37           -3.3303    -4.9311     0.0573 H       
  38 H38           -2.1425    -6.9745    -0.4749 H       
  39 H39           -0.3689    -6.9872    -0.6248 H       
  40 H40           -1.8827    -6.5908     1.9944 H       
  41 H41           -1.0397    -8.9071     2.4977 H       
  42 H42            0.9699    -6.5459     1.3374 H       
  43 H43           -2.8524    -8.5669     0.0677 H       
  44 H44           -0.3684    -8.9252    -0.3269 H       
  45 H45           -1.9992   -10.8872     0.2599 H       
  46 H46           -2.5020   -10.9307     1.9668 H       
  47 H47           -4.3519   -10.5042    -0.4233 H       
  48 H48           -4.1955   -12.0102     0.5124 H       
  49 H49            2.4664    -6.6051     3.5517 H       
  50 H50            1.8930    -4.9352     3.3263 H       
  51 H51            3.5942    -5.9390     5.6182 H       
  52 H52            3.0209    -4.2690     5.3928 H       
  53 H53            2.6255    -5.1517     6.8871 H       
  54 H54           -3.4272    -8.8777     3.0493 H       
  55 H55           -3.5836    -7.3717     2.1135 H       
  56 H56           -6.1513   -10.6890     1.2727 H       
  57 H57           -4.9267   -10.8150     2.5583 H       
  58 H58           -5.7799    -8.4947     2.3660 H       
  59 H59           -5.2771    -8.4512     0.6591 H       
@<TRIPOS>BOND
   1    1    2 ar
   2    1    7 1
   3    1    6 ar
   4    2    3 ar
   5    2   31 1
   6    3    4 ar
   7    3    9 1
   8    4    5 ar
   9    4   32 1
  10    5    6 ar
  11    5    8 1
  12    6   33 1
  13    9   10 ar
  14    9   11 ar
  15   10   14 ar
  16   10   34 1
  17   11   12 ar
  18   11   35 1
  19   12   13 ar
  20   12   36 1
  21   13   14 ar
  22   13   15 1
  23   14   37 1
  24   15   16 1
  25   15   38 1
  26   15   39 1
  27   16   17 1
  28   16   18 1
  29   16   40 1
  30   17   19 1
  31   17   20 1
  32   17   41 1
  33   18   23 am
  34   18   42 1
  35   19   21 1
  36   19   28 1
  37   19   43 1
  38   20   44 1
  39   21   22 1
  40   21   45 1
  41   21   46 1
  42   22   29 1
  43   22   47 1
  44   22   48 1
  45   23   24 1
  46   23   25 2
  47   24   26 1
  48   24   49 1
  49   24   50 1
  50   26   27 1
  51   27   51 1
  52   27   52 1
  53   27   53 1
  54   28   30 1
  55   28   54 1
  56   28   55 1
  57   29   30 1
  58   29   56 1
  59   29   57 1
  60   30   58 1
  61   30   59 1

#	End of record

