#	Name: ASD09116406
#	Creating user name:	WinNT
#	Creation time:	15. 06. 2019 21:21

#	Modifying user name:	WinNT
#	Modification time:	15. 06. 2019 21:21

#	Program:	/corina/corina34_cracker 3.40 0067  02.08.2006

@<TRIPOS>MOLECULE
ASD09116406
  71   77    0    0    0
SMALL
NO_CHARGES


@<TRIPOS>ATOM
   1 N1            -0.0594     1.4826     0.3680 N.2     
   2 N2            -0.0762     0.1247     0.7253 N.pl3   
   3 C3             1.1986     1.8507     0.3215 C.2     
   4 N4             1.9714     0.8022     0.6288 N.2     
   5 C5             1.2168    -0.2472     0.8751 C.2     
   6 N6             1.6650    -1.5065     1.2257 N.pl3   
   7 C7            -1.2032    -0.6820     0.8927 C.ar    
   8 N8             1.6571     3.1288     0.0026 N.pl3   
   9 C9             3.0221     3.4266     0.0968 C.ar    
  10 C10            3.5835     4.3832    -0.7396 C.ar    
  11 C11            3.8129     2.7700     1.0300 C.ar    
  12 C12            5.1598     3.0636     1.1240 C.ar    
  13 C13            5.7232     4.0147     0.2855 C.ar    
  14 C14            4.9307     4.6769    -0.6463 C.ar    
  15 N15           -1.1067    -1.9944     0.7412 N.ar    
  16 N16           -2.1151    -2.7805     0.8748 N.ar    
  17 C17           -3.3192    -2.3197     1.1730 C.ar    
  18 C18           -3.5121    -0.9497     1.3726 C.ar    
  19 C19           -2.4317    -0.1057     1.2258 C.ar    
  20 C20           -4.4935    -3.2169     1.2742 C.ar    
  21 C21           -5.6616    -2.8792     0.5889 C.ar    
  22 C22           -5.6801    -1.6484    -0.2755 C.3     
  23 C23           -5.8007    -0.3798     0.5646 C.3     
  24 C24           -4.8663    -0.4385     1.7700 C.3     
  25 C25           -4.4466    -4.3769     2.0395 C.ar    
  26 C26           -5.5664    -5.1807     2.1321 C.ar    
  27 C27           -6.7285    -4.8315     1.4683 C.ar    
  28 C28           -6.7766    -3.6821     0.6985 C.ar    
  29 F29            5.4788     5.6028    -1.4633 F       
  30 N30            7.0892     4.3125     0.3815 N.3     
  31 C31            7.7593     4.1551    -0.9276 C.3     
  32 C32            9.1842     3.6428    -0.6470 C.3     
  33 C33            9.2638     3.4922     0.8896 C.3     
  34 C34            7.7756     3.3718     1.3035 C.3     
  35 N35           10.0049     2.2777     1.2551 N.3     
  36 C36           11.3919     2.3354     0.7580 C.3     
  37 C37           12.3220     2.1589     1.9767 C.3     
  38 C38           11.4121     1.4444     3.0103 C.3     
  39 C39           10.0378     2.0985     2.7223 C.3     
  40 H40            2.6163    -1.6770     1.3090 H       
  41 H41            1.0284    -2.2200     1.3886 H       
  42 H42            1.0304     3.8112    -0.2845 H       
  43 H43            2.9674     4.8969    -1.4628 H       
  44 H44            3.3751     2.0296     1.6830 H       
  45 H45            5.7741     2.5529     1.8507 H       
  46 H46           -2.5329     0.9617     1.3555 H       
  47 H47           -4.7581    -1.6059    -0.8552 H       
  48 H48           -6.5274    -1.7053    -0.9589 H       
  49 H49           -5.5410     0.4829    -0.0490 H       
  50 H50           -6.8286    -0.2758     0.9120 H       
  51 H51           -5.2931    -1.1017     2.5224 H       
  52 H52           -4.7623     0.5611     2.1920 H       
  53 H53           -3.5393    -4.6484     2.5586 H       
  54 H54           -5.5343    -6.0836     2.7238 H       
  55 H55           -7.6034    -5.4592     1.5512 H       
  56 H56           -7.6874    -3.4148     0.1834 H       
  57 H57            7.2179     3.4317    -1.5372 H       
  58 H58            7.8044     5.1164    -1.4396 H       
  59 H59            9.3415     2.6786    -1.1303 H       
  60 H60            9.9216     4.3662    -0.9949 H       
  61 H61            9.7194     4.3738     1.3405 H       
  62 H62            7.6384     3.6800     2.3399 H       
  63 H63            7.4155     2.3540     1.1528 H       
  64 H64           11.5627     1.5318     0.0417 H       
  65 H65           11.5771     3.3007     0.2869 H       
  66 H66           13.1783     1.5350     1.7207 H       
  67 H67           12.6489     3.1273     2.3554 H       
  68 H68           11.3798     0.3706     2.8256 H       
  69 H69           11.7386     1.6541     4.0288 H       
  70 H70            9.9641     3.0633     3.2242 H       
  71 H71            9.2298     1.4406     3.0424 H       
@<TRIPOS>BOND
   1    1    2 1
   2    1    3 2
   3    2    7 1
   4    2    5 1
   5    3    4 1
   6    3    8 1
   7    4    5 2
   8    5    6 1
   9    6   40 1
  10    6   41 1
  11    7   15 ar
  12    7   19 ar
  13    8    9 1
  14    8   42 1
  15    9   10 ar
  16    9   11 ar
  17   10   14 ar
  18   10   43 1
  19   11   12 ar
  20   11   44 1
  21   12   13 ar
  22   12   45 1
  23   13   14 ar
  24   13   30 1
  25   14   29 1
  26   15   16 ar
  27   16   17 ar
  28   17   18 ar
  29   17   20 1
  30   18   19 ar
  31   18   24 1
  32   19   46 1
  33   20   21 ar
  34   20   25 ar
  35   21   22 1
  36   21   28 ar
  37   22   23 1
  38   22   47 1
  39   22   48 1
  40   23   24 1
  41   23   49 1
  42   23   50 1
  43   24   51 1
  44   24   52 1
  45   25   26 ar
  46   25   53 1
  47   26   27 ar
  48   26   54 1
  49   27   28 ar
  50   27   55 1
  51   28   56 1
  52   30   31 1
  53   30   34 1
  54   31   32 1
  55   31   57 1
  56   31   58 1
  57   32   33 1
  58   32   59 1
  59   32   60 1
  60   33   34 1
  61   33   35 1
  62   33   61 1
  63   34   62 1
  64   34   63 1
  65   35   36 1
  66   35   39 1
  67   36   37 1
  68   36   64 1
  69   36   65 1
  70   37   38 1
  71   37   66 1
  72   37   67 1
  73   38   39 1
  74   38   68 1
  75   38   69 1
  76   39   70 1
  77   39   71 1

#	End of record

