#	Name: ASD01882580
#	Creating user name:	WinNT
#	Creation time:	15. 06. 2019 19:44

#	Modifying user name:	WinNT
#	Modification time:	15. 06. 2019 19:44

#	Program:	/corina/corina34_cracker 3.40 0067  02.08.2006

@<TRIPOS>MOLECULE
ASD01882580
  57   60    0    0    0
SMALL
NO_CHARGES


@<TRIPOS>ATOM
   1 C1             0.0176     1.4238     0.1479 C.2     
   2 C2             0.0987     0.0550     0.4681 C.2     
   3 C3             1.2817    -0.5963     0.3048 C.2     
   4 C4             2.4013     0.1021    -0.1789 C.2     
   5 C5             2.3087     1.4141    -0.4812 C.2     
   6 N6             1.1288     2.0795    -0.3227 N.pl3   
   7 N7            -0.5248     3.4530    -0.2129 N.2     
   8 N8            -0.9622     2.3120     0.1902 N.2     
   9 C9             0.7394     3.3655    -0.5371 C.2     
  10 C10           -1.1108    -0.6797     0.9861 C.3     
  11 F11           -0.9721    -0.8947     2.3615 F       
  12 F12           -2.2582     0.0840     0.7468 F       
  13 F13           -1.2248    -1.9106     0.3309 F       
  14 C14            1.6057     4.4841    -1.0559 C.3     
  15 C15            1.5262     4.5244    -2.5833 C.3     
  16 C16            0.1017     4.8842    -3.0105 C.3     
  17 C17            2.4999     5.5770    -3.1171 C.3     
  18 C18            1.3914    -2.0611     0.6416 C.3     
  19 N19            1.6391    -2.8287    -0.5862 N.3     
  20 C20            2.1150    -4.1823    -0.2736 C.3     
  21 C21            2.5000    -4.9008    -1.5688 C.3     
  22 C22            1.2796    -4.9690    -2.4910 C.3     
  23 C23            0.7744    -3.5492    -2.7619 C.3     
  24 C24            0.4394    -2.8698    -1.4321 C.3     
  25 C25            1.6676    -5.6223    -3.7924 C.ar    
  26 C26            0.6890    -6.0761    -4.6568 C.ar    
  27 C27            1.0449    -6.6754    -5.8506 C.ar    
  28 C28            2.3796    -6.8205    -6.1801 C.ar    
  29 C29            3.3582    -6.3659    -5.3161 C.ar    
  30 C30            3.0022    -5.7627    -4.1244 C.ar    
  31 F31            0.2692    -5.7152    -1.8750 F       
  32 H32            3.3411    -0.4139    -0.3090 H       
  33 H33            3.1755     1.9411    -0.8518 H       
  34 H34            1.2564     5.4330    -0.6487 H       
  35 H35            2.6383     4.3157    -0.7502 H       
  36 H36            1.7906     3.5470    -2.9868 H       
  37 H37            0.0450     4.9129    -4.0986 H       
  38 H38           -0.5920     4.1344    -2.6302 H       
  39 H39           -0.1627     5.8616    -2.6069 H       
  40 H40            3.5147     5.3206    -2.8128 H       
  41 H41            2.4432     5.6057    -4.2053 H       
  42 H42            2.2355     6.5544    -2.7136 H       
  43 H43            2.2163    -2.2130     1.3377 H       
  44 H44            0.4621    -2.3991     1.1002 H       
  45 H45            2.9855    -4.1194     0.3793 H       
  46 H46            1.3237    -4.7385     0.2289 H       
  47 H47            3.3008    -4.3526    -2.0649 H       
  48 H48            2.8385    -5.9109    -1.3378 H       
  49 H49            1.5481    -2.9797    -3.2768 H       
  50 H50           -0.1200    -3.5935    -3.3833 H       
  51 H51           -0.3440    -3.4321    -0.9242 H       
  52 H52            0.0930    -1.8537    -1.6206 H       
  53 H53           -0.3537    -5.9627    -4.3994 H       
  54 H54            0.2803    -7.0306    -6.5256 H       
  55 H55            2.6577    -7.2893    -7.1124 H       
  56 H56            4.4009    -6.4795    -5.5735 H       
  57 H57            3.7667    -5.4042    -3.4511 H       
@<TRIPOS>BOND
   1    1    2 1
   2    1    6 1
   3    1    8 2
   4    2    3 2
   5    2   10 1
   6    3    4 1
   7    3   18 1
   8    4    5 2
   9    4   32 1
  10    5    6 1
  11    5   33 1
  12    6    9 1
  13    7    8 1
  14    7    9 2
  15    9   14 1
  16   10   11 1
  17   10   12 1
  18   10   13 1
  19   14   15 1
  20   14   34 1
  21   14   35 1
  22   15   16 1
  23   15   17 1
  24   15   36 1
  25   16   37 1
  26   16   38 1
  27   16   39 1
  28   17   40 1
  29   17   41 1
  30   17   42 1
  31   18   19 1
  32   18   43 1
  33   18   44 1
  34   19   20 1
  35   19   24 1
  36   20   21 1
  37   20   45 1
  38   20   46 1
  39   21   22 1
  40   21   47 1
  41   21   48 1
  42   22   23 1
  43   22   25 1
  44   22   31 1
  45   23   24 1
  46   23   49 1
  47   23   50 1
  48   24   51 1
  49   24   52 1
  50   25   26 ar
  51   25   30 ar
  52   26   27 ar
  53   26   53 1
  54   27   28 ar
  55   27   54 1
  56   28   29 ar
  57   28   55 1
  58   29   30 ar
  59   29   56 1
  60   30   57 1

#	End of record

