#	Name: ASD01913395
#	Creating user name:	WinNT
#	Creation time:	15. 06. 2019 20:01

#	Modifying user name:	WinNT
#	Modification time:	15. 06. 2019 20:01

#	Program:	/corina/corina34_cracker 3.40 0067  02.08.2006

@<TRIPOS>MOLECULE
ASD01913395
  38   40    0    0    0
SMALL
NO_CHARGES


@<TRIPOS>ATOM
   1 C1            -0.3670    -0.7396    -2.2421 C.ar    
   2 C2            -0.6987    -0.0455    -1.0829 C.ar    
   3 C3            -0.5525     1.3342    -1.0585 C.ar    
   4 N4            -0.1066     1.9820    -2.1163 N.ar    
   5 C5             0.2164     1.3542    -3.2302 C.ar    
   6 C6             0.0983    -0.0192    -3.3306 C.ar    
   7 C7            -1.1819    -2.0673    -0.0311 C.ar    
   8 C8            -0.0692    -2.7921     0.3742 C.ar    
   9 C9            -0.0880    -4.1743     0.3398 C.ar    
  10 C10           -1.2131    -4.8426    -0.0972 C.ar    
  11 C11           -2.3372    -4.1225    -0.5064 C.ar    
  12 C12           -2.3167    -2.7282    -0.4716 C.ar    
  13 C13           -3.5444    -4.8352    -0.9752 C.2     
  14 N14           -3.5614    -6.1824    -1.0083 N.am    
  15 C15           -4.7030    -6.8564    -1.4517 C.2     
  16 O16           -4.5219    -4.2061    -1.3310 O.2     
  17 O17           -1.1596    -0.7092     0.0098 O.3     
  18 N18           -4.8394    -8.1588    -1.5288 N.2     
  19 N19           -6.1324    -8.4022    -2.0198 N.pl3   
  20 C20           -6.7005    -7.1993    -2.2095 C.2     
  21 N21           -5.8370    -6.2799    -1.8612 N.2     
  22 C22           -8.0936    -6.9520    -2.7283 C.3     
  23 C23           -6.7417    -9.7098    -2.2752 C.3     
  24 H24           -0.4656    -1.8140    -2.2910 H       
  25 H25           -0.8070     1.8830    -0.1638 H       
  26 H26            0.5782     1.9210    -4.0754 H       
  27 H27            0.3655    -0.5250    -4.2466 H       
  28 H28            0.8144    -2.2744     0.7173 H       
  29 H29            0.7809    -4.7325     0.6557 H       
  30 H30           -1.2242    -5.9223    -0.1231 H       
  31 H31           -3.1832    -2.1657    -0.7865 H       
  32 H32           -2.7815    -6.6844    -0.7244 H       
  33 H33           -8.7911    -6.9115    -1.8917 H       
  34 H34           -8.1177    -6.0050    -3.2676 H       
  35 H35           -8.3797    -7.7606    -3.4010 H       
  36 H36           -7.2547   -10.0534    -1.3769 H       
  37 H37           -7.4580    -9.6235    -3.0922 H       
  38 H38           -5.9656   -10.4254    -2.5466 H       
@<TRIPOS>BOND
   1    1    2 ar
   2    1    6 ar
   3    1   24 1
   4    2    3 ar
   5    2   17 1
   6    3    4 ar
   7    3   25 1
   8    4    5 ar
   9    5    6 ar
  10    5   26 1
  11    6   27 1
  12    7    8 ar
  13    7   12 ar
  14    7   17 1
  15    8    9 ar
  16    8   28 1
  17    9   10 ar
  18    9   29 1
  19   10   11 ar
  20   10   30 1
  21   11   12 ar
  22   11   13 1
  23   12   31 1
  24   13   14 am
  25   13   16 2
  26   14   15 1
  27   14   32 1
  28   15   18 2
  29   15   21 1
  30   18   19 1
  31   19   20 1
  32   19   23 1
  33   20   21 2
  34   20   22 1
  35   22   33 1
  36   22   34 1
  37   22   35 1
  38   23   36 1
  39   23   37 1
  40   23   38 1

#	End of record

