#	Name: ASD03740193
#	Creating user name:	WinNT
#	Creation time:	15. 06. 2019 20:46

#	Modifying user name:	WinNT
#	Modification time:	15. 06. 2019 20:46

#	Program:	/corina/corina34_cracker 3.40 0067  02.08.2006

@<TRIPOS>MOLECULE
ASD03740193
  27   28    0    0    0
SMALL
NO_CHARGES


@<TRIPOS>ATOM
   1 O1            -0.0164     1.3546     0.0095 O.3     
   2 N2             4.5923     4.9656     2.2723 N.3     
   3 C3             4.3630     4.7999     0.8308 C.3     
   4 C4            -0.0434     1.3411    -3.6286 C.ar    
   5 C5             0.3477     1.5988    -2.3290 C.ar    
   6 C6            -0.3988     1.1026    -1.2698 C.ar    
   7 C7            -1.5364     0.3481    -1.5193 C.ar    
   8 C8            -1.9227     0.0930    -2.8207 C.ar    
   9 C9            -1.1771     0.5886    -3.8744 C.ar    
  10 C10            3.1912     3.8781     0.6113 C.ar    
  11 C11            1.9127     4.3967     0.5206 C.ar    
  12 C12            0.8369     3.5539     0.3190 C.ar    
  13 C13            1.0402     2.1859     0.2074 C.ar    
  14 C14            2.3243     1.6680     0.2988 C.ar    
  15 C15            3.3972     2.5157     0.4952 C.ar    
  16 H16            5.3736     5.5800     2.4459 H       
  17 H17            4.1506     5.7706     0.3828 H       
  18 H18            5.2528     4.3730     0.3681 H       
  19 H19            0.5348     1.7308    -4.4533 H       
  20 H20            1.2334     2.1863    -2.1375 H       
  21 H21           -2.1189    -0.0395    -0.6966 H       
  22 H22           -2.8078    -0.4945    -3.0154 H       
  23 H23           -1.4811     0.3883    -4.8912 H       
  24 H24            1.7550     5.4615     0.6075 H       
  25 H25           -0.1616     3.9594     0.2489 H       
  26 H26            2.4853     0.6036     0.2123 H       
  27 H27            4.3973     2.1136     0.5620 H       
@<TRIPOS>BOND
   1    1    6 1
   2    1   13 1
   3    2    3 1
   4    2   16 1
   5    3   10 1
   6    3   17 1
   7    3   18 1
   8    4    5 ar
   9    4    9 ar
  10    4   19 1
  11    5    6 ar
  12    5   20 1
  13    6    7 ar
  14    7    8 ar
  15    7   21 1
  16    8    9 ar
  17    8   22 1
  18    9   23 1
  19   10   11 ar
  20   10   15 ar
  21   11   12 ar
  22   11   24 1
  23   12   13 ar
  24   12   25 1
  25   13   14 ar
  26   14   15 ar
  27   14   26 1
  28   15   27 1

#	End of record

