#	Name: ASD08070630
#	Creating user name:	WinNT
#	Creation time:	15. 06. 2019 21:15

#	Modifying user name:	WinNT
#	Modification time:	15. 06. 2019 21:15

#	Program:	/corina/corina34_cracker 3.40 0067  02.08.2006

@<TRIPOS>MOLECULE
ASD08070630
  43   44    0    0    0
SMALL
NO_CHARGES


@<TRIPOS>ATOM
   1 O1            -0.0162     1.3410     0.0094 O.3     
   2 C2             0.0021    -0.0041     0.0020 C.2     
   3 N3             1.2373    -0.4373    -0.0121 N.2     
   4 C4             2.0758     0.6360    -0.0143 C.ar    
   5 C5             1.2622     1.7816    -0.0004 C.ar    
   6 C6             1.8386     3.0436     0.0004 C.ar    
   7 C7             3.2087     3.1767    -0.0128 C.ar    
   8 C8             4.0288     2.0427    -0.0267 C.ar    
   9 C9             3.4610     0.7707    -0.0273 C.ar    
  10 C10            5.4979     2.1947    -0.0408 C.2     
  11 O11            6.2108     1.2101    -0.0529 O.2     
  12 N12            6.0480     3.4251    -0.0403 N.am    
  13 S13           -1.4283    -1.0329     0.0101 S.3     
  14 C14           -2.7242     0.2306     0.0285 C.3     
  15 C15            8.2483     2.0515    -3.5111 C.3     
  16 C16            7.7427     2.1169    -2.0686 C.3     
  17 C17            8.0108     3.5105    -1.4969 C.3     
  18 C18            7.5052     3.5760    -0.0543 C.3     
  19 C19            7.8841     4.9258     0.5582 C.3     
  20 C20            7.4895     4.9439     2.0363 C.3     
  21 C21            7.8684     6.2938     2.6488 C.3     
  22 H22            1.2115     3.9228     0.0112 H       
  23 H23            3.6530     4.1611    -0.0128 H       
  24 H24            4.0919    -0.1058    -0.0377 H       
  25 H25            5.4792     4.2107    -0.0307 H       
  26 H26           -3.7017    -0.2515     0.0352 H       
  27 H27           -2.6173     0.8477     0.9207 H       
  28 H28           -2.6339     0.8566    -0.8592 H       
  29 H29            9.3195     2.2521    -3.5301 H       
  30 H30            8.0573     1.0587    -3.9184 H       
  31 H31            7.7284     2.7972    -4.1126 H       
  32 H32            6.6714     1.9164    -2.0496 H       
  33 H33            8.2626     1.3713    -1.4672 H       
  34 H34            9.0821     3.7111    -1.5158 H       
  35 H35            7.4909     4.2562    -2.0983 H       
  36 H36            7.9592     2.7731     0.5266 H       
  37 H37            8.9597     5.0769     0.4674 H       
  38 H38            7.3595     5.7235     0.0323 H       
  39 H39            6.4138     4.7929     2.1271 H       
  40 H40            8.0141     4.1462     2.5622 H       
  41 H41            7.5873     6.3067     3.7019 H       
  42 H42            8.9441     6.4449     2.5581 H       
  43 H43            7.3438     7.0915     2.1229 H       
@<TRIPOS>BOND
   1    1    2 1
   2    1    5 1
   3    2    3 2
   4    2   13 1
   5    3    4 1
   6    4    5 ar
   7    4    9 ar
   8    5    6 ar
   9    6    7 ar
  10    6   22 1
  11    7    8 ar
  12    7   23 1
  13    8    9 ar
  14    8   10 1
  15    9   24 1
  16   10   11 2
  17   10   12 am
  18   12   18 1
  19   12   25 1
  20   13   14 1
  21   14   26 1
  22   14   27 1
  23   14   28 1
  24   15   16 1
  25   15   29 1
  26   15   30 1
  27   15   31 1
  28   16   17 1
  29   16   32 1
  30   16   33 1
  31   17   18 1
  32   17   34 1
  33   17   35 1
  34   18   19 1
  35   18   36 1
  36   19   20 1
  37   19   37 1
  38   19   38 1
  39   20   21 1
  40   20   39 1
  41   20   40 1
  42   21   41 1
  43   21   42 1
  44   21   43 1

#	End of record

