#	Name: ASD01190072
#	Creating user name:	WinNT
#	Creation time:	15. 06. 2019 19:07

#	Modifying user name:	WinNT
#	Modification time:	15. 06. 2019 19:07

#	Program:	/corina/corina34_cracker 3.40 0067  02.08.2006

@<TRIPOS>MOLECULE
ASD01190072
  52   56    0    0    0
SMALL
NO_CHARGES


@<TRIPOS>ATOM
   1 C1             0.9893     0.0431     2.5055 C.2     
   2 C2             0.9072     0.5591     1.0920 C.3     
   3 O3             1.5266    -1.0202     2.7326 O.2     
   4 N4             0.4706     0.7659     3.5179 N.am    
   5 N5             1.5437    -0.3989     0.1846 N.pl3   
   6 C6             2.8415    -0.3331    -0.2437 C.2     
   7 C7             3.1052    -1.3619    -1.0646 C.2     
   8 C8             1.8757    -2.1512    -1.1706 C.ar    
   9 C9             1.5248    -3.3133    -1.8606 C.ar    
  10 C10            0.2579    -3.8122    -1.7486 C.ar    
  11 C11           -0.6841    -3.1730    -0.9539 C.ar    
  12 C12           -0.3595    -2.0252    -0.2650 C.ar    
  13 C13            0.9266    -1.5030    -0.3595 C.ar    
  14 C14            4.4173    -1.6503    -1.7476 C.3     
  15 C15            5.4455    -0.5913    -1.3448 C.3     
  16 N16            6.2935    -6.7910    -0.4580 N.pl3   
  17 N17            6.5314    -7.2648    -1.7524 N.2     
  18 C18            6.2263    -6.3491    -2.6274 C.2     
  19 C19            5.7509    -5.1765    -1.8998 C.ar    
  20 C20            5.2926    -3.9120    -2.2860 C.ar    
  21 C21            4.9106    -3.0127    -1.3330 C.ar    
  22 C22            4.9726    -3.3411     0.0157 C.ar    
  23 C23            5.4166    -4.5693     0.4171 C.ar    
  24 C24            5.8129    -5.5072    -0.5323 C.ar    
  25 C25            6.9442    -6.8683     1.8732 C.ar    
  26 C26            6.5058    -7.5123     0.7233 C.ar    
  27 C27            6.2800    -8.8859     0.7627 C.ar    
  28 C28            6.5037    -9.5557     1.9547 C.ar    
  29 C29            6.9401    -8.8448     3.0570 C.ar    
  30 N30            7.1451    -7.5438     2.9868 N.ar    
  31 O31            4.2333    -1.6211    -3.1644 O.3     
  32 F32            5.6256    -0.6199     0.0422 F       
  33 F33            6.6635    -0.8591    -1.9788 F       
  34 F34            4.9875     0.6734    -1.7296 F       
  35 H35           -0.1385     0.6857     0.8115 H       
  36 H36            1.4200     1.5187     1.0251 H       
  37 H37            0.0445     1.6182     3.3367 H       
  38 H38            0.5235     0.4337     4.4277 H       
  39 H39            3.5489     0.4333     0.0368 H       
  40 H40            2.2523    -3.8158    -2.4809 H       
  41 H41           -0.0131    -4.7109    -2.2828 H       
  42 H42           -1.6816    -3.5795    -0.8754 H       
  43 H43           -1.0994    -1.5350     0.3503 H       
  44 H44            6.3101    -6.4412    -3.7002 H       
  45 H45            5.2424    -3.6488    -3.3322 H       
  46 H46            4.6665    -2.6165     0.7557 H       
  47 H47            5.4602    -4.8118     1.4686 H       
  48 H48            7.1269    -5.8040     1.8532 H       
  49 H49            5.9386    -9.4159    -0.1142 H       
  50 H50            6.3387   -10.6209     2.0220 H       
  51 H51            7.1160    -9.3620     3.9886 H       
  52 H52            3.5932    -2.2680    -3.4913 H       
@<TRIPOS>BOND
   1    1    2 1
   2    1    3 2
   3    1    4 am
   4    2    5 1
   5    2   35 1
   6    2   36 1
   7    4   37 1
   8    4   38 1
   9    5    6 1
  10    5   13 1
  11    6    7 2
  12    6   39 1
  13    7    8 1
  14    7   14 1
  15    8    9 ar
  16    8   13 ar
  17    9   10 ar
  18    9   40 1
  19   10   11 ar
  20   10   41 1
  21   11   12 ar
  22   11   42 1
  23   12   13 ar
  24   12   43 1
  25   14   15 1
  26   14   21 1
  27   14   31 1
  28   15   32 1
  29   15   33 1
  30   15   34 1
  31   16   17 1
  32   16   24 1
  33   16   26 1
  34   17   18 2
  35   18   19 1
  36   18   44 1
  37   19   20 ar
  38   19   24 ar
  39   20   21 ar
  40   20   45 1
  41   21   22 ar
  42   22   23 ar
  43   22   46 1
  44   23   24 ar
  45   23   47 1
  46   25   26 ar
  47   25   30 ar
  48   25   48 1
  49   26   27 ar
  50   27   28 ar
  51   27   49 1
  52   28   29 ar
  53   28   50 1
  54   29   30 ar
  55   29   51 1
  56   31   52 1

#	End of record

