#	Name: ASD01910611
#	Creating user name:	WinNT
#	Creation time:	15. 06. 2019 19:56

#	Modifying user name:	WinNT
#	Modification time:	15. 06. 2019 19:56

#	Program:	/corina/corina34_cracker 3.40 0067  02.08.2006

@<TRIPOS>MOLECULE
ASD01910611
  43   46    0    0    0
SMALL
NO_CHARGES


@<TRIPOS>ATOM
   1 C1            -0.6047     2.2765     0.1959 C.ar    
   2 C2            -0.7258     0.8998     0.2601 C.ar    
   3 C3             0.4031     0.1009     0.3000 C.ar    
   4 C4             1.6581     0.6733     0.2759 C.ar    
   5 C5             1.7874     2.0615     0.2106 C.ar    
   6 C6             0.6444     2.8617     0.1707 C.ar    
   7 C7             3.1289     2.6817     0.1850 C.2     
   8 N8             3.4002     3.9733     0.1247 N.2     
   9 C9             4.7394     4.0600     0.1247 C.2     
  10 N10            5.2123     2.8501     0.1834 N.2     
  11 O11            4.3082     2.0426     0.2242 O.3     
  12 C12            5.5489     5.3298     0.0663 C.3     
  13 C13            6.4278     5.4331     1.3149 C.3     
  14 C14            7.2259     6.7383     1.2724 C.3     
  15 C15            8.1354     6.7361     0.0398 C.3     
  16 N16            7.3139     6.4921    -1.1537 N.am    
  17 C17            6.4394     5.3117    -1.1800 C.3     
  18 C18            7.3615     7.3350    -2.2042 C.2     
  19 C19            6.6312     7.0092    -3.4463 C.ar    
  20 O20            8.0055     8.3633    -2.1297 O.2     
  21 C21            5.9401     8.0009    -4.1430 C.ar    
  22 N22            5.2886     7.7119    -5.2504 N.ar    
  23 C23            5.2618     6.4863    -5.7438 C.ar    
  24 C24            5.9247     5.4455    -5.1094 C.ar    
  25 C25            6.6263     5.7001    -3.9469 C.ar    
  26 F26            4.5779     6.2430    -6.8833 F       
  27 H27           -1.4898     2.8943     0.1608 H       
  28 H28           -1.7060     0.4467     0.2796 H       
  29 H29            0.3016    -0.9732     0.3505 H       
  30 H30            2.5385     0.0486     0.3078 H       
  31 H31            0.7377     3.9364     0.1198 H       
  32 H32            4.8776     6.1874     0.0219 H       
  33 H33            5.7979     5.4214     2.2044 H       
  34 H34            7.1154     4.5879     1.3460 H       
  35 H35            6.5392     7.5829     1.2164 H       
  36 H36            7.8340     6.8223     2.1731 H       
  37 H37            8.6319     7.7023    -0.0497 H       
  38 H38            8.8813     5.9473     0.1374 H       
  39 H39            7.0471     4.4067    -1.1818 H       
  40 H40            5.8169     5.3380    -2.0744 H       
  41 H41            5.9391     9.0146    -3.7705 H       
  42 H42            5.8956     4.4479    -5.5221 H       
  43 H43            7.1517     4.9088    -3.4327 H       
@<TRIPOS>BOND
   1    1    2 ar
   2    1    6 ar
   3    1   27 1
   4    2    3 ar
   5    2   28 1
   6    3    4 ar
   7    3   29 1
   8    4    5 ar
   9    4   30 1
  10    5    6 ar
  11    5    7 1
  12    6   31 1
  13    7    8 2
  14    7   11 1
  15    8    9 1
  16    9   10 2
  17    9   12 1
  18   10   11 1
  19   12   13 1
  20   12   17 1
  21   12   32 1
  22   13   14 1
  23   13   33 1
  24   13   34 1
  25   14   15 1
  26   14   35 1
  27   14   36 1
  28   15   16 1
  29   15   37 1
  30   15   38 1
  31   16   17 1
  32   16   18 am
  33   17   39 1
  34   17   40 1
  35   18   19 1
  36   18   20 2
  37   19   21 ar
  38   19   25 ar
  39   21   22 ar
  40   21   41 1
  41   22   23 ar
  42   23   24 ar
  43   23   26 1
  44   24   25 ar
  45   24   42 1
  46   25   43 1

#	End of record

