#	Name: ASD03090214
#	Creating user name:	WinNT
#	Creation time:	15. 06. 2019 20:28

#	Modifying user name:	WinNT
#	Modification time:	15. 06. 2019 20:28

#	Program:	/corina/corina34_cracker 3.40 0067  02.08.2006

@<TRIPOS>MOLECULE
ASD03090214
  51   54    0    0    0
SMALL
NO_CHARGES


@<TRIPOS>ATOM
   1 N1             0.4471     1.5126     1.4729 N.ar    
   2 C2             0.4093     0.1943     1.4383 C.ar    
   3 C3             1.5358    -0.5388     1.1269 C.ar    
   4 C4             2.7284     0.1367     0.8454 C.ar    
   5 C5             2.7224     1.5346     0.8934 C.ar    
   6 C6             1.5500     2.1881     1.2143 C.ar    
   7 C7             3.9622    -0.6075     0.5068 C.2     
   8 N8             5.7409    -3.4559    -0.5305 N.pl3   
   9 C9             4.8136    -4.4464    -0.8741 C.ar    
  10 C10            3.5973    -4.0918    -1.4419 C.ar    
  11 C11            2.6802    -5.0725    -1.7816 C.ar    
  12 C12            2.9804    -6.4131    -1.5525 C.ar    
  13 C13            4.1949    -6.7628    -0.9850 C.ar    
  14 C14            5.1122    -5.7844    -0.6522 C.ar    
  15 N15            4.0265    -1.8635     0.1130 N.2     
  16 C16            5.2978    -2.2023    -0.1046 C.2     
  17 N17            6.0661    -1.1670     0.1471 N.2     
  18 N18            5.2212    -0.1169     0.5412 N.pl3   
  19 C19            5.6249     1.2391     0.9215 C.3     
  20 C20            5.7282     2.1108    -0.3316 C.3     
  21 C21           -0.8818    -0.5206     1.7436 C.3     
  22 O22            1.4378    -4.9930    -2.3415 O.3     
  23 C23            1.1499    -6.3168    -2.8289 C.3     
  24 O24            1.9249    -7.1736    -1.9696 O.3     
  25 F25           -0.2145    -6.6004    -2.7048 F       
  26 F26            1.5623    -6.4515    -4.1589 F       
  27 C27            6.1435     3.5056     0.0596 C.2     
  28 N28            6.2991     4.4528    -0.8865 N.am    
  29 O29            6.3376     3.7759     1.2259 O.2     
  30 C30            6.7028     5.8087    -0.5062 C.3     
  31 C31            6.8062     6.6804    -1.7593 C.3     
  32 H32            1.4977    -1.6178     1.1011 H       
  33 H33            3.6219     2.0942     0.6831 H       
  34 H34            1.5353     3.2673     1.2539 H       
  35 H35            6.6915    -3.6404    -0.5883 H       
  36 H36            3.3663    -3.0517    -1.6184 H       
  37 H37            4.4273    -7.8024    -0.8072 H       
  38 H38            6.0582    -6.0598    -0.2099 H       
  39 H39            4.8830     1.6626     1.5986 H       
  40 H40            6.5934     1.2034     1.4202 H       
  41 H41            6.4701     1.6873    -1.0086 H       
  42 H42            4.7597     2.1465    -0.8303 H       
  43 H43           -1.4469    -0.6595     0.8219 H       
  44 H44           -0.6632    -1.4926     2.1858 H       
  45 H45           -1.4691     0.0733     2.4439 H       
  46 H46            6.1438     4.2366    -1.8193 H       
  47 H47            5.9609     6.2322     0.1709 H       
  48 H48            7.6714     5.7730    -0.0075 H       
  49 H49            5.8376     6.7161    -2.2580 H       
  50 H50            7.1065     7.6893    -1.4763 H       
  51 H51            7.5480     6.2569    -2.4363 H       
@<TRIPOS>BOND
   1    1    2 ar
   2    1    6 ar
   3    2    3 ar
   4    2   21 1
   5    3    4 ar
   6    3   32 1
   7    4    5 ar
   8    4    7 1
   9    5    6 ar
  10    5   33 1
  11    6   34 1
  12    7   15 2
  13    7   18 1
  14    8    9 1
  15    8   16 1
  16    8   35 1
  17    9   10 ar
  18    9   14 ar
  19   10   11 ar
  20   10   36 1
  21   11   12 ar
  22   11   22 1
  23   12   13 ar
  24   12   24 1
  25   13   14 ar
  26   13   37 1
  27   14   38 1
  28   15   16 1
  29   16   17 2
  30   17   18 1
  31   18   19 1
  32   19   20 1
  33   19   39 1
  34   19   40 1
  35   20   27 1
  36   20   41 1
  37   20   42 1
  38   21   43 1
  39   21   44 1
  40   21   45 1
  41   22   23 1
  42   23   24 1
  43   23   25 1
  44   23   26 1
  45   27   28 am
  46   27   29 2
  47   28   30 1
  48   28   46 1
  49   30   31 1
  50   30   47 1
  51   30   48 1
  52   31   49 1
  53   31   50 1
  54   31   51 1

#	End of record

