#	Name: ASD01910113
#	Creating user name:	WinNT
#	Creation time:	15. 06. 2019 19:55

#	Modifying user name:	WinNT
#	Modification time:	15. 06. 2019 19:55

#	Program:	/corina/corina34_cracker 3.40 0067  02.08.2006

@<TRIPOS>MOLECULE
ASD01910113
  39   42    0    0    0
SMALL
NO_CHARGES


@<TRIPOS>ATOM
   1 C1             0.1083     0.4901     0.3938 C.ar    
   2 C2             0.3410    -0.8712     0.4405 C.ar    
   3 C3             1.6349    -1.3656     0.3789 C.ar    
   4 C4             2.7010    -0.4879     0.2694 C.ar    
   5 C5             2.4636     0.9010     0.2214 C.ar    
   6 C6             1.1655     1.3806     0.2843 C.ar    
   7 C7             4.1675    -0.6507     0.1815 C.2     
   8 N8             4.7293     0.5681     0.0892 N.am    
   9 C9             3.7939     1.5348     0.1059 C.2     
  10 C10            6.1703     0.8108    -0.0148 C.3     
  11 C11            6.5988     0.6818    -1.4539 C.ar    
  12 C12            6.4509     1.7555    -2.3220 C.ar    
  13 C13            6.8474     1.6333    -3.6476 C.ar    
  14 C14            7.3873     0.4452    -4.0988 C.ar    
  15 C15            7.5332    -0.6236    -3.2315 C.ar    
  16 C16            7.1444    -0.5027    -1.9091 C.ar    
  17 N17            5.9031     2.9578    -1.8624 N.am    
  18 C18            5.3568     3.8268    -2.7358 C.2     
  19 C19            4.8881     5.1364    -2.2711 C.2     
  20 O20            5.2525     3.5247    -3.9101 O.2     
  21 O21            4.0069     2.7285     0.0378 O.2     
  22 O22            4.7652    -1.7078     0.1916 O.2     
  23 Cl23           8.2119    -2.1161    -3.8021 Cl      
  24 C24            4.3217     6.1018    -3.0382 C.2     
  25 N25            3.9892     7.1837    -2.3799 N.2     
  26 C26            4.2330     7.2054    -1.1090 C.2     
  27 S27            4.9527     5.7355    -0.6152 S.3     
  28 H28           -0.9043     0.8629     0.4385 H       
  29 H29           -0.4908    -1.5548     0.5258 H       
  30 H30            1.8109    -2.4305     0.4165 H       
  31 H31            0.9777     2.4435     0.2476 H       
  32 H32            6.3964     1.8154     0.3429 H       
  33 H33            6.7065     0.0803     0.5908 H       
  34 H34            6.7331     2.4667    -4.3250 H       
  35 H35            7.6957     0.3496    -5.1294 H       
  36 H36            7.2597    -1.3381    -1.2343 H       
  37 H37            5.9165     3.1661    -0.9151 H       
  38 H38            4.1593     5.9876    -4.0997 H       
  39 H39            4.0090     8.0332    -0.4524 H       
@<TRIPOS>BOND
   1    1    2 ar
   2    1    6 ar
   3    1   28 1
   4    2    3 ar
   5    2   29 1
   6    3    4 ar
   7    3   30 1
   8    4    5 ar
   9    4    7 1
  10    5    6 ar
  11    5    9 1
  12    6   31 1
  13    7    8 am
  14    7   22 2
  15    8    9 am
  16    8   10 1
  17    9   21 2
  18   10   11 1
  19   10   32 1
  20   10   33 1
  21   11   12 ar
  22   11   16 ar
  23   12   13 ar
  24   12   17 1
  25   13   14 ar
  26   13   34 1
  27   14   15 ar
  28   14   35 1
  29   15   16 ar
  30   15   23 1
  31   16   36 1
  32   17   18 am
  33   17   37 1
  34   18   19 1
  35   18   20 2
  36   19   24 2
  37   19   27 1
  38   24   25 1
  39   24   38 1
  40   25   26 2
  41   26   27 1
  42   26   39 1

#	End of record

