#	Name: ASD02408077
#	Creating user name:	WinNT
#	Creation time:	15. 06. 2019 20:21

#	Modifying user name:	WinNT
#	Modification time:	15. 06. 2019 20:21

#	Program:	/corina/corina34_cracker 3.40 0067  02.08.2006

@<TRIPOS>MOLECULE
ASD02408077
  49   52    0    0    0
SMALL
NO_CHARGES


@<TRIPOS>ATOM
   1 C1             0.5463     0.6169    -0.0818 C.ar    
   2 C2             0.8168    -0.7183    -0.3144 C.ar    
   3 C3             1.6698     1.6212    -0.0630 C.3     
   4 C4             1.8801     2.1657    -1.4523 C.2     
   5 N5             2.8453     3.0839    -1.6526 N.am    
   6 N6             1.1245     1.7281    -2.4226 N.2     
   7 C7             1.2664     2.1757    -3.6768 C.2     
   8 C8             2.2507     3.1382    -3.9556 C.2     
   9 C9             3.0614     3.5926    -2.8839 C.2     
  10 N10            0.4585     1.6984    -4.6796 N.pl3   
  11 C11            1.0075     1.4165    -6.0129 C.3     
  12 O12            3.9305     4.4268    -3.0699 O.2     
  13 C13           -0.2139    -1.6396    -0.3316 C.ar    
  14 C14           -1.5148    -1.2254    -0.1157 C.ar    
  15 C15           -1.7852     0.1102     0.1178 C.ar    
  16 C16           -0.7556     1.0322     0.1280 C.ar    
  17 C17            0.0808    -3.0954    -0.5862 C.3     
  18 C18            0.6564    -0.0246    -6.3962 C.3     
  19 C19           -0.8556    -0.2259    -6.2794 C.3     
  20 C20           -1.3038     0.0180    -4.8370 C.3     
  21 C21           -0.9700     1.4543    -4.4378 C.3     
  22 O22           -1.5322     0.6853    -7.1544 O.3     
  23 C23           -2.3065    -0.1048    -8.0795 C.3     
  24 C24           -2.4630    -1.4571    -7.3401 C.3     
  25 O25           -1.1890    -1.5706    -6.6615 O.3     
  26 C26            2.4340     3.6419    -5.2835 C.1     
  27 N27            2.5793     4.0414    -6.3370 N.1     
  28 H28            1.8332    -1.0420    -0.4830 H       
  29 H29            1.4159     2.4378     0.6128 H       
  30 H30            2.5842     1.1369     0.2797 H       
  31 H31            3.3887     3.3818    -0.9064 H       
  32 H32            0.5739     2.1037    -6.7394 H       
  33 H33            2.0907     1.5362    -5.9949 H       
  34 H34           -2.3200    -1.9450    -0.1299 H       
  35 H35           -2.8017     0.4339     0.2862 H       
  36 H36           -0.9669     2.0755     0.3104 H       
  37 H37            0.2712    -3.5988     0.3617 H       
  38 H38           -0.7744    -3.5587    -1.0782 H       
  39 H39            0.9589    -3.1818    -1.2262 H       
  40 H40            0.9705    -0.2148    -7.4225 H       
  41 H41            1.1681    -0.7144    -5.7251 H       
  42 H42           -2.3791    -0.1423    -4.7582 H       
  43 H43           -0.7832    -0.6719    -4.1728 H       
  44 H44           -1.1933     1.6011    -3.3811 H       
  45 H45           -1.5603     2.1468    -5.0378 H       
  46 H46           -3.2800     0.3527    -8.2558 H       
  47 H47           -1.7671    -0.2387    -9.0171 H       
  48 H48           -3.2842    -1.4178    -6.6244 H       
  49 H49           -2.6026    -2.2747    -8.0473 H       
@<TRIPOS>BOND
   1    1    2 ar
   2    1    3 1
   3    1   16 ar
   4    2   13 ar
   5    2   28 1
   6    3    4 1
   7    3   29 1
   8    3   30 1
   9    4    5 1
  10    4    6 2
  11    5    9 am
  12    5   31 1
  13    6    7 1
  14    7    8 2
  15    7   10 1
  16    8    9 1
  17    8   26 1
  18    9   12 2
  19   10   11 1
  20   10   21 1
  21   11   18 1
  22   11   32 1
  23   11   33 1
  24   13   14 ar
  25   13   17 1
  26   14   15 ar
  27   14   34 1
  28   15   16 ar
  29   15   35 1
  30   16   36 1
  31   17   37 1
  32   17   38 1
  33   17   39 1
  34   18   19 1
  35   18   40 1
  36   18   41 1
  37   19   20 1
  38   19   22 1
  39   19   25 1
  40   20   21 1
  41   20   42 1
  42   20   43 1
  43   21   44 1
  44   21   45 1
  45   22   23 1
  46   23   24 1
  47   23   46 1
  48   23   47 1
  49   24   25 1
  50   24   48 1
  51   24   49 1
  52   26   27 3

#	End of record

