#	Name: ASD01411214
#	Creating user name:	WinNT
#	Creation time:	15. 06. 2019 19:19

#	Modifying user name:	WinNT
#	Modification time:	15. 06. 2019 19:19

#	Program:	/corina/corina34_cracker 3.40 0067  02.08.2006

@<TRIPOS>MOLECULE
ASD01411214
  71   74    0    0    0
SMALL
NO_CHARGES


@<TRIPOS>ATOM
   1 C1            -0.7006     1.1427    -1.7024 C.ar    
   2 C2            -0.4129    -0.1886    -1.5336 C.ar    
   3 C3             0.8519    -0.6940    -1.8278 C.ar    
   4 C4             1.8356     0.1682    -2.2926 C.ar    
   5 C5             1.5526     1.5094    -2.4622 C.ar    
   6 C6             0.2880     2.0034    -2.1709 C.ar    
   7 P7            -1.6593    -1.3591    -0.9148 P.3     
   8 N8            -0.8586    -2.7426    -0.5164 N.2     
   9 C9             0.3667    -2.9138    -0.9082 C.2     
  10 N10            1.1084    -2.0531    -1.6580 N.pl3   
  11 C11            1.0232    -4.1696    -0.4987 C.2     
  12 C12            0.4492    -5.1513     0.2500 C.2     
  13 C13            1.4921    -6.2329     0.4146 C.3     
  14 N14            2.6811    -5.7609    -0.3052 N.am    
  15 C15            2.3936    -4.5601    -0.8385 C.2     
  16 O16           -2.3284    -0.7999     0.2810 O.2     
  17 O17           -2.7459    -1.6636    -2.0631 O.3     
  18 O18           -0.8002    -5.1573     0.7460 O.3     
  19 O19            3.1625    -3.8923    -1.5042 O.2     
  20 C20           -3.5593    -0.6480    -2.6539 C.3     
  21 C21           -4.4772    -1.2767    -3.7042 C.3     
  22 C22            1.8170    -6.4306     1.8966 C.3     
  23 C23            0.5227    -6.6788     2.6738 C.3     
  24 C24            2.7479    -7.6339     2.0585 C.3     
  25 C25            2.5054    -5.1766     2.4394 C.3     
  26 N26            0.0080     3.3629    -2.3482 N.am    
  27 S27           -0.0778     4.3687    -1.0354 S.o2    
  28 O28           -0.2801     5.6590    -1.5951 O.2     
  29 O29           -1.0590     3.7707    -0.1994 O.2     
  30 C30            1.5635     4.2565    -0.2711 C.3     
  31 C31            3.9546    -6.4749    -0.4266 C.3     
  32 C32            3.9008    -7.3993    -1.6155 C.ar    
  33 C33            4.3001    -6.9480    -2.8600 C.ar    
  34 C34            4.2517    -7.7948    -3.9508 C.ar    
  35 C35            3.8031    -9.0959    -3.7972 C.ar    
  36 C36            3.4036    -9.5466    -2.5507 C.ar    
  37 C37            3.4578    -8.6993    -1.4600 C.ar    
  38 C38            2.9146   -10.9621    -2.3821 C.3     
  39 F39            3.7549    -9.9246    -4.8631 F       
  40 H40           -1.6877     1.5188    -1.4777 H       
  41 H41            2.8214    -0.2093    -2.5211 H       
  42 H42            2.3196     2.1781    -2.8239 H       
  43 H43            1.8829    -2.4177    -2.1142 H       
  44 H44            1.1362    -7.1669    -0.0202 H       
  45 H45           -1.3526    -4.3872     0.5538 H       
  46 H46           -4.1634    -0.1715    -1.8819 H       
  47 H47           -2.9216     0.0979    -3.1284 H       
  48 H48           -5.0977    -0.5020    -4.1549 H       
  49 H49           -3.8731    -1.7533    -4.4762 H       
  50 H50           -5.1149    -2.0226    -3.2297 H       
  51 H51            0.0323    -7.5721     2.2871 H       
  52 H52            0.7542    -6.8196     3.7296 H       
  53 H53           -0.1405    -5.8214     2.5584 H       
  54 H54            3.7796    -7.3187     1.9029 H       
  55 H55            2.6407    -8.0437     3.0629 H       
  56 H56            2.4865    -8.3968     1.3251 H       
  57 H57            1.8422    -4.3193     2.3240 H       
  58 H58            2.7369    -5.3174     3.4952 H       
  59 H59            3.4275    -4.9998     1.8857 H       
  60 H60           -0.1358     3.7162    -3.2400 H       
  61 H61            2.3263     4.4962    -1.0119 H       
  62 H62            1.6274     4.9618     0.5575 H       
  63 H63            1.7230     3.2442     0.1002 H       
  64 H64            4.7627    -5.7560    -0.5615 H       
  65 H65            4.1328    -7.0563     0.4780 H       
  66 H66            4.6496    -5.9331    -2.9796 H       
  67 H67            4.5632    -7.4420    -4.9228 H       
  68 H68            3.1505    -9.0521    -0.4866 H       
  69 H69            3.7572   -11.6117    -2.1451 H       
  70 H70            2.1867   -11.0009    -1.5717 H       
  71 H71            2.4463   -11.2974    -3.3075 H       
@<TRIPOS>BOND
   1    1    2 ar
   2    1    6 ar
   3    1   40 1
   4    2    3 ar
   5    2    7 1
   6    3    4 ar
   7    3   10 1
   8    4    5 ar
   9    4   41 1
  10    5    6 ar
  11    5   42 1
  12    6   26 1
  13    7    8 1
  14    7   16 2
  15    7   17 1
  16    8    9 2
  17    9   10 1
  18    9   11 1
  19   10   43 1
  20   11   12 2
  21   11   15 1
  22   12   13 1
  23   12   18 1
  24   13   14 1
  25   13   22 1
  26   13   44 1
  27   14   15 am
  28   14   31 1
  29   15   19 2
  30   17   20 1
  31   18   45 1
  32   20   21 1
  33   20   46 1
  34   20   47 1
  35   21   48 1
  36   21   49 1
  37   21   50 1
  38   22   23 1
  39   22   24 1
  40   22   25 1
  41   23   51 1
  42   23   52 1
  43   23   53 1
  44   24   54 1
  45   24   55 1
  46   24   56 1
  47   25   57 1
  48   25   58 1
  49   25   59 1
  50   26   27 am
  51   26   60 1
  52   27   28 2
  53   27   29 2
  54   27   30 1
  55   30   61 1
  56   30   62 1
  57   30   63 1
  58   31   32 1
  59   31   64 1
  60   31   65 1
  61   32   33 ar
  62   32   37 ar
  63   33   34 ar
  64   33   66 1
  65   34   35 ar
  66   34   67 1
  67   35   36 ar
  68   35   39 1
  69   36   37 ar
  70   36   38 1
  71   37   68 1
  72   38   69 1
  73   38   70 1
  74   38   71 1

#	End of record

