#	Name: ASD01812427
#	Creating user name:	WinNT
#	Creation time:	15. 06. 2019 19:28

#	Modifying user name:	WinNT
#	Modification time:	15. 06. 2019 19:28

#	Program:	/corina/corina34_cracker 3.40 0067  02.08.2006

@<TRIPOS>MOLECULE
ASD01812427
  63   67    0    0    0
SMALL
NO_CHARGES


@<TRIPOS>ATOM
   1 C1            -0.0213     1.4752     0.0482 C.ar    
   2 C2            -0.0896     0.1515     0.4387 C.ar    
   3 C3             1.0712    -0.5784     0.6159 C.ar    
   4 C4             2.3005     0.0123     0.4013 C.ar    
   5 C5             2.3786     1.3444     0.0068 C.ar    
   6 C6             1.2105     2.0768    -0.1675 C.ar    
   7 N7             3.6413     1.9065    -0.2066 N.3     
   8 C8             3.6101     3.3727    -0.1523 C.3     
   9 C9             2.4834     3.8726    -1.0657 C.3     
  10 O10            1.2435     3.3853    -0.5421 O.3     
  11 C11            4.6253     1.3654     0.7405 C.3     
  12 C12            5.9922     1.9058     0.4082 C.ar    
  13 C13            6.7586     1.2903    -0.5650 C.ar    
  14 C14            6.4736     3.0189     1.0733 C.ar    
  15 C15            7.7248     3.5182     0.7725 C.ar    
  16 C16            8.5029     2.8990    -0.2030 C.ar    
  17 C17            8.0111     1.7815    -0.8736 C.ar    
  18 N18            3.5015     6.0546    -1.6323 N.am    
  19 C19            2.4723     5.3795    -1.0834 C.2     
  20 C20            3.4907     7.5194    -1.6495 C.3     
  21 C21            4.3628     8.0224    -2.8016 C.3     
  22 C22            4.3516     9.5523    -2.8195 C.3     
  23 C23            4.9024    10.0819    -1.4940 C.3     
  24 C24            4.0303     9.5790    -0.3419 C.3     
  25 C25            4.0415     8.0491    -0.3240 C.3     
  26 O26            3.8484     7.5277    -4.0396 O.3     
  27 O27            1.5371     5.9847    -0.6036 O.2     
  28 C28            9.8495     3.4317    -0.5308 C.2     
  29 C29           10.4685     4.5504     0.0602 C.2     
  30 N30           11.6436     4.7023    -0.4908 N.2     
  31 N31           11.8200     3.6952    -1.4473 N.pl3   
  32 C32           10.7147     2.9231    -1.4550 C.2     
  33 C33           13.0035     3.5092    -2.2905 C.3     
  34 H34           -0.9295     2.0421    -0.0938 H       
  35 H35           -1.0501    -0.3131     0.6059 H       
  36 H36            1.0162    -1.6123     0.9231 H       
  37 H37            3.2048    -0.5615     0.5404 H       
  38 H38            3.4224     3.6970     0.8713 H       
  39 H39            4.5642     3.7719    -0.4962 H       
  40 H40            2.6313     3.4932    -2.0768 H       
  41 H41            4.3544     1.6607     1.7542 H       
  42 H42            4.6375     0.2778     0.6700 H       
  43 H43            6.3765     0.4238    -1.0840 H       
  44 H44            5.8693     3.4983     1.8292 H       
  45 H45            8.0996     4.3875     1.2922 H       
  46 H46            8.6087     1.3002    -1.6336 H       
  47 H47            4.2495     5.5706    -2.0160 H       
  48 H48            2.4689     7.8737    -1.7858 H       
  49 H49            5.3846     7.6682    -2.6652 H       
  50 H50            4.9729     9.9106    -3.6403 H       
  51 H51            3.3298     9.9065    -2.9558 H       
  52 H52            5.9242     9.7277    -1.3577 H       
  53 H53            4.8943    11.1718    -1.5068 H       
  54 H54            4.4227     9.9563     0.6024 H       
  55 H55            3.0085     9.9332    -0.4782 H       
  56 H56            3.4202     7.6908     0.4968 H       
  57 H57            5.0633     7.6949    -0.1876 H       
  58 H58            4.3533     7.8077    -4.8153 H       
  59 H59           10.0454     5.1743     0.8336 H       
  60 H60           10.5440     2.0599    -2.0812 H       
  61 H61           13.7120     2.8545    -1.7829 H       
  62 H62           12.7075     3.0590    -3.2380 H       
  63 H63           13.4717     4.4755    -2.4778 H       
@<TRIPOS>BOND
   1    1    2 ar
   2    1    6 ar
   3    1   34 1
   4    2    3 ar
   5    2   35 1
   6    3    4 ar
   7    3   36 1
   8    4    5 ar
   9    4   37 1
  10    5    7 1
  11    5    6 ar
  12    6   10 1
  13    7   11 1
  14    7    8 1
  15    8    9 1
  16    8   38 1
  17    8   39 1
  18    9   10 1
  19    9   19 1
  20    9   40 1
  21   11   12 1
  22   11   41 1
  23   11   42 1
  24   12   14 ar
  25   12   13 ar
  26   13   17 ar
  27   13   43 1
  28   14   15 ar
  29   14   44 1
  30   15   16 ar
  31   15   45 1
  32   16   17 ar
  33   16   28 1
  34   17   46 1
  35   18   19 am
  36   18   20 1
  37   18   47 1
  38   19   27 2
  39   20   21 1
  40   20   25 1
  41   20   48 1
  42   21   22 1
  43   21   26 1
  44   21   49 1
  45   22   23 1
  46   22   50 1
  47   22   51 1
  48   23   24 1
  49   23   52 1
  50   23   53 1
  51   24   25 1
  52   24   54 1
  53   24   55 1
  54   25   56 1
  55   25   57 1
  56   26   58 1
  57   28   29 1
  58   28   32 2
  59   29   30 2
  60   29   59 1
  61   30   31 1
  62   31   32 1
  63   31   33 1
  64   32   60 1
  65   33   61 1
  66   33   62 1
  67   33   63 1

#	End of record

