#	Name: ASD01814054
#	Creating user name:	WinNT
#	Creation time:	15. 06. 2019 19:31

#	Modifying user name:	WinNT
#	Modification time:	15. 06. 2019 19:31

#	Program:	/corina/corina34_cracker 3.40 0067  02.08.2006

@<TRIPOS>MOLECULE
ASD01814054
  52   56    0    0    0
SMALL
NO_CHARGES


@<TRIPOS>ATOM
   1 N1             0.7300     1.1925    -0.5620 N.2     
   2 C2             0.8975    -0.0913    -0.7753 C.2     
   3 C3             2.1562    -0.5883    -1.1467 C.2     
   4 C4             3.1976     0.2695    -1.2831 C.2     
   5 N5             2.9957     1.6009    -1.0551 N.pl3   
   6 C6             1.7515     2.0491    -0.6938 C.2     
   7 N7             3.8461     2.7100    -1.1107 N.2     
   8 C8             3.1590     3.7904    -0.7986 C.2     
   9 C9             1.8499     3.4260    -0.5323 C.2     
  10 C10            3.2895     5.2841    -0.6288 C.3     
  11 N11            1.9754     5.8059    -0.2410 N.am    
  12 C12            1.0623     4.6603    -0.1752 C.3     
  13 C13            1.6655     7.0937     0.0078 C.2     
  14 O14            0.5123     7.4098     0.2285 O.2     
  15 C15            2.7254     8.1199     0.0123 C.ar    
  16 C16            2.7872     9.0647     1.0454 C.ar    
  17 C17            3.6768     8.1518    -1.0104 C.ar    
  18 C18            4.6641     9.1128    -1.0004 C.ar    
  19 C19            4.7187    10.0484     0.0199 C.ar    
  20 C20            3.7881    10.0251     1.0394 C.ar    
  21 O21            1.8721     9.0405     2.0465 O.3     
  22 C22            2.0622     9.9625     3.1216 C.3     
  23 C23            1.3345     9.4662     4.3880 C.3     
  24 C24            4.5593    -0.2395    -1.6805 C.3     
  25 Cl25           2.3783    -2.2869    -1.4284 Cl      
  26 C26           -0.2665    -1.0359    -0.6204 C.3     
  27 O27            2.2596     9.3219     5.4676 O.3     
  28 C28            1.4053    11.3189     2.7871 C.3     
  29 N29            0.8455    11.7925     4.0792 N.3     
  30 C30            0.2992    10.5645     4.7122 C.3     
  31 H31            4.0192     5.5049     0.1502 H       
  32 H32            3.6037     5.7367    -1.5693 H       
  33 H33            0.2465     4.7963    -0.8852 H       
  34 H34            0.6626     4.5644     0.8343 H       
  35 H35            3.6385     7.4240    -1.8074 H       
  36 H36            5.3991     9.1366    -1.7915 H       
  37 H37            5.4965    10.7977     0.0202 H       
  38 H38            3.8394    10.7554     1.8334 H       
  39 H39            3.1253    10.0958     3.3217 H       
  40 H40            0.8339     8.5184     4.1900 H       
  41 H41            4.5180    -1.3203    -1.8156 H       
  42 H42            4.8651     0.2321    -2.6144 H       
  43 H43            5.2796     0.0017    -0.8988 H       
  44 H44           -1.1541    -0.4741    -0.3297 H       
  45 H45           -0.4514    -1.5430    -1.5673 H       
  46 H46           -0.0358    -1.7738     0.1480 H       
  47 H47            1.8512     9.0549     6.3024 H       
  48 H48            2.1515    12.0214     2.4159 H       
  49 H49            0.6096    11.1855     2.0542 H       
  50 H50            1.5636    12.2069     4.6542 H       
  51 H51           -0.6696    10.3130     4.2805 H       
  52 H52            0.2125    10.6989     5.7904 H       
@<TRIPOS>BOND
   1    1    2 2
   2    1    6 1
   3    2    3 1
   4    2   26 1
   5    3    4 2
   6    3   25 1
   7    4    5 1
   8    4   24 1
   9    5    7 1
  10    5    6 1
  11    6    9 2
  12    7    8 2
  13    8   10 1
  14    8    9 1
  15    9   12 1
  16   10   11 1
  17   10   31 1
  18   10   32 1
  19   11   12 1
  20   11   13 am
  21   12   33 1
  22   12   34 1
  23   13   14 2
  24   13   15 1
  25   15   17 ar
  26   15   16 ar
  27   16   20 ar
  28   16   21 1
  29   17   18 ar
  30   17   35 1
  31   18   19 ar
  32   18   36 1
  33   19   20 ar
  34   19   37 1
  35   20   38 1
  36   21   22 1
  37   22   28 1
  38   22   23 1
  39   22   39 1
  40   23   27 1
  41   23   30 1
  42   23   40 1
  43   24   41 1
  44   24   42 1
  45   24   43 1
  46   26   44 1
  47   26   45 1
  48   26   46 1
  49   27   47 1
  50   28   29 1
  51   28   48 1
  52   28   49 1
  53   29   30 1
  54   29   50 1
  55   30   51 1
  56   30   52 1

#	End of record

