#	Name: ASD02198061
#	Creating user name:	WinNT
#	Creation time:	15. 06. 2019 20:18

#	Modifying user name:	WinNT
#	Modification time:	15. 06. 2019 20:18

#	Program:	/corina/corina34_cracker 3.40 0067  02.08.2006

@<TRIPOS>MOLECULE
ASD02198061
  49   52    0    0    0
SMALL
NO_CHARGES


@<TRIPOS>ATOM
   1 C1            -0.0134     1.3783     0.0917 C.2     
   2 C2             0.0023     0.0013     0.0295 C.2     
   3 C3            -1.1891    -0.7932     0.0149 C.1     
   4 S4             1.5723     2.0047     0.0907 S.3     
   5 C5             2.2772     0.3983     0.0056 C.2     
   6 C6             1.2825    -0.5479    -0.0187 C.2     
   7 C7             3.6589     0.1215    -0.0318 C.2     
   8 C8             4.6310     1.2280    -0.1456 C.2     
   9 O9             4.0517    -1.0314     0.0298 O.2     
  10 N10            1.5268    -1.9115    -0.0844 N.pl3   
  11 N11           -1.1550     2.1443     0.1418 N.pl3   
  12 N12           -2.1341    -1.4235     0.0034 N.1     
  13 C13            4.3275     2.5927    -0.3461 C.2     
  14 N14            5.4509     3.2555    -0.3921 N.2     
  15 N15            6.5127     2.3592    -0.2257 N.pl3   
  16 C16            6.0042     1.1217    -0.0699 C.2     
  17 C17            7.8738     2.6933    -0.2175 C.ar    
  18 C18            8.3451     3.7114    -1.0355 C.ar    
  19 C19            6.7909    -0.1464     0.1395 C.3     
  20 C20            8.7527     2.0105     0.6127 C.ar    
  21 C21           10.0935     2.3420     0.6185 C.ar    
  22 C22           10.5608     3.3529    -0.2012 C.ar    
  23 C23            9.6870     4.0382    -1.0253 C.ar    
  24 C24           -1.0552     3.6045     0.2061 C.3     
  25 C25           -2.3346     4.2457    -0.3591 C.3     
  26 C26           -2.9570     5.0709     0.7861 C.3     
  27 C27           -1.7644     5.3756     1.7263 C.3     
  28 C28           -0.9446     4.0624     1.6751 C.3     
  29 H29            2.4390    -2.2398    -0.1159 H       
  30 H30            0.7855    -2.5369    -0.0989 H       
  31 H31           -2.0261     1.7176     0.1346 H       
  32 H32            3.3381     3.0143    -0.4447 H       
  33 H33            7.6632     4.2470    -1.6794 H       
  34 H34            6.9419    -0.3083     1.2068 H       
  35 H35            6.2417    -0.9885    -0.2816 H       
  36 H36            7.7583    -0.0598    -0.3552 H       
  37 H37            8.3882     1.2214     1.2536 H       
  38 H38           10.7776     1.8113     1.2641 H       
  39 H39           11.6095     3.6107    -0.1944 H       
  40 H40           10.0550     4.8273    -1.6644 H       
  41 H41           -0.1866     3.9442    -0.3581 H       
  42 H42           -2.0869     4.8973    -1.1971 H       
  43 H43           -3.0299     3.4705    -0.6813 H       
  44 H44           -3.3849     5.9963     0.4006 H       
  45 H45           -3.7151     4.4874     1.3084 H       
  46 H46           -1.1776     6.2123     1.3472 H       
  47 H47           -2.1125     5.5743     2.7399 H       
  48 H48           -1.3778     3.3161     2.3409 H       
  49 H49            0.0960     4.2518     1.9383 H       
@<TRIPOS>BOND
   1    1    2 2
   2    1    4 1
   3    1   11 1
   4    2    3 1
   5    2    6 1
   6    3   12 3
   7    4    5 1
   8    5    6 2
   9    5    7 1
  10    6   10 1
  11    7    8 1
  12    7    9 2
  13    8   13 1
  14    8   16 2
  15   10   29 1
  16   10   30 1
  17   11   24 1
  18   11   31 1
  19   13   14 2
  20   13   32 1
  21   14   15 1
  22   15   16 1
  23   15   17 1
  24   16   19 1
  25   17   18 ar
  26   17   20 ar
  27   18   23 ar
  28   18   33 1
  29   19   34 1
  30   19   35 1
  31   19   36 1
  32   20   21 ar
  33   20   37 1
  34   21   22 ar
  35   21   38 1
  36   22   23 ar
  37   22   39 1
  38   23   40 1
  39   24   25 1
  40   24   28 1
  41   24   41 1
  42   25   26 1
  43   25   42 1
  44   25   43 1
  45   26   27 1
  46   26   44 1
  47   26   45 1
  48   27   28 1
  49   27   46 1
  50   27   47 1
  51   28   48 1
  52   28   49 1

#	End of record

