#	Name: ASD01881835
#	Creating user name:	WinNT
#	Creation time:	15. 06. 2019 19:43

#	Modifying user name:	WinNT
#	Modification time:	15. 06. 2019 19:43

#	Program:	/corina/corina34_cracker 3.40 0067  02.08.2006

@<TRIPOS>MOLECULE
ASD01881835
  33   35    0    0    0
SMALL
NO_CHARGES


@<TRIPOS>ATOM
   1 C1            -0.1829     1.5933     0.1162 C.2     
   2 C2            -0.0501     0.1230    -0.1865 C.3     
   3 C3             0.8941    -0.5235     0.8290 C.3     
   4 O4             0.7850     2.3272     0.0112 O.co2   
   5 O5            -1.2595     2.0498     0.4613 O.co2   
   6 O6            -1.3345    -0.4980    -0.1053 O.3     
   7 N7            -2.3305    -5.0868    -2.9258 N.pl3   
   8 N8            -3.6949    -5.1689    -2.6104 N.2     
   9 N9            -4.0201    -4.1796    -1.8554 N.2     
  10 C10           -2.9477    -3.3976    -1.6199 C.ar    
  11 C11           -1.8517    -3.9602    -2.2968 C.ar    
  12 C12           -2.7643    -2.2221    -0.8786 C.ar    
  13 C13           -1.5156    -1.6382    -0.8240 C.ar    
  14 C14           -0.4391    -2.2076    -1.4998 C.ar    
  15 C15           -0.6031    -3.3525    -2.2275 C.ar    
  16 C16           -1.5648    -6.0199    -3.7559 C.3     
  17 C17           -1.6153    -5.5636    -5.2154 C.3     
  18 C18           -0.7759    -6.3440    -6.2290 C.3     
  19 C19           -2.2988    -6.4910    -6.2223 C.3     
  20 Br20          -4.2200    -1.4418     0.0420 Br      
  21 H21            0.3530    -0.0061    -1.1910 H       
  22 H22            1.8738    -0.0499     0.7670 H       
  23 H23            0.4910    -0.3944     1.8334 H       
  24 H24            0.9902    -1.5870     0.6100 H       
  25 H25            0.5331    -1.7400    -1.4490 H       
  26 H26            0.2378    -3.7862    -2.7482 H       
  27 H27           -0.5288    -6.0412    -3.4176 H       
  28 H28           -1.9949    -7.0179    -3.6721 H       
  29 H29           -1.7194    -4.4895    -5.3689 H       
  30 H30           -0.3280    -5.7833    -7.0495 H       
  31 H31           -0.1876    -7.1824    -5.8561 H       
  32 H32           -2.7124    -7.4262    -5.8449 H       
  33 H33           -2.8528    -6.0271    -7.0383 H       
@<TRIPOS>BOND
   1    1    2 1
   2    1    4 ar
   3    1    5 ar
   4    2    3 1
   5    2    6 1
   6    2   21 1
   7    3   22 1
   8    3   23 1
   9    3   24 1
  10    6   13 1
  11    7    8 1
  12    7   11 1
  13    7   16 1
  14    8    9 2
  15    9   10 1
  16   10   11 ar
  17   10   12 ar
  18   11   15 ar
  19   12   13 ar
  20   12   20 1
  21   13   14 ar
  22   14   15 ar
  23   14   25 1
  24   15   26 1
  25   16   17 1
  26   16   27 1
  27   16   28 1
  28   17   18 1
  29   17   19 1
  30   17   29 1
  31   18   19 1
  32   18   30 1
  33   18   31 1
  34   19   32 1
  35   19   33 1

#	End of record

