#	Name: ASD01420198
#	Creating user name:	WinNT
#	Creation time:	15. 06. 2019 19:20

#	Modifying user name:	WinNT
#	Modification time:	15. 06. 2019 19:20

#	Program:	/corina/corina34_cracker 3.40 0067  02.08.2006

@<TRIPOS>MOLECULE
ASD01420198
  25   25    0    0    0
SMALL
NO_CHARGES


@<TRIPOS>ATOM
   1 C1            -0.0179     1.4705     0.0101 C.2     
   2 C2             0.0021    -0.0041     0.0020 C.ar    
   3 C3             1.2211    -0.6885    -0.0133 C.ar    
   4 C4             1.2353    -2.0650    -0.0209 C.ar    
   5 C5             0.0396    -2.7746    -0.0138 C.ar    
   6 C6            -1.1744    -2.0980     0.0010 C.ar    
   7 C7            -1.1975    -0.7213     0.0154 C.ar    
   8 O8             1.0260     2.0922     0.0035 O.2     
   9 O9            -1.1939     2.1283     0.0193 O.3     
  10 C10            2.5486    -2.8039    -0.0374 C.3     
  11 C11            3.3348    -2.4186    -1.2921 C.3     
  12 C12            3.3586    -2.4321     1.2062 C.3     
  13 O13            0.0580    -4.1314    -0.0217 O.3     
  14 H14            2.1503    -0.1381    -0.0195 H       
  15 H15           -2.1010    -2.6530     0.0057 H       
  16 H16           -2.1413    -0.1964     0.0317 H       
  17 H17           -1.1564     3.0945     0.0244 H       
  18 H18            2.3614    -3.8777    -0.0414 H       
  19 H19            3.5220    -1.3448    -1.2881 H       
  20 H20            4.2847    -2.9530    -1.3040 H       
  21 H21            2.7577    -2.6835    -2.1781 H       
  22 H22            2.7985    -2.7066     2.1001 H       
  23 H23            4.3085    -2.9665     1.1943 H       
  24 H24            3.5459    -1.3583     1.2102 H       
  25 H25            0.0716    -4.5298     0.8593 H       
@<TRIPOS>BOND
   1    1    2 1
   2    1    8 2
   3    1    9 1
   4    2    3 ar
   5    2    7 ar
   6    3    4 ar
   7    3   14 1
   8    4    5 ar
   9    4   10 1
  10    5    6 ar
  11    5   13 1
  12    6    7 ar
  13    6   15 1
  14    7   16 1
  15    9   17 1
  16   10   11 1
  17   10   12 1
  18   10   18 1
  19   11   19 1
  20   11   20 1
  21   11   21 1
  22   12   22 1
  23   12   23 1
  24   12   24 1
  25   13   25 1

#	End of record

