#	Name: ASD02408127
#	Creating user name:	WinNT
#	Creation time:	15. 06. 2019 20:21

#	Modifying user name:	WinNT
#	Modification time:	15. 06. 2019 20:21

#	Program:	/corina/corina34_cracker 3.40 0067  02.08.2006

@<TRIPOS>MOLECULE
ASD02408127
  53   56    0    0    0
SMALL
NO_CHARGES


@<TRIPOS>ATOM
   1 C1            -1.0894     1.7407     0.1697 C.ar    
   2 C2            -1.3857     0.3889     0.0079 C.ar    
   3 C3             0.2311     2.1757     0.0735 C.ar    
   4 C4             1.2375     1.2666    -0.1814 C.ar    
   5 C5             0.9376    -0.0745    -0.3413 C.ar    
   6 C6            -0.3711    -0.5117    -0.2468 C.ar    
   7 C7             0.5593     3.6363     0.2469 C.3     
   8 C8             0.5870     3.9740     1.7153 C.2     
   9 N9             0.8637     5.2387     2.0875 N.am    
  10 N10            0.3367     3.0324     2.5841 N.2     
  11 C11            0.3469     3.2745     3.9012 C.2     
  12 C12            0.6332     4.5711     4.3593 C.2     
  13 C13            0.8963     5.5765     3.3938 C.2     
  14 N14            0.0797     2.2660     4.7942 N.pl3   
  15 C15           -0.7544     2.5156     5.9777 C.3     
  16 O16            1.1504     6.7184     3.7362 O.2     
  17 C17           -2.1765     2.7143     0.4376 C.ar    
  18 C18           -2.3681     3.8135    -0.4061 C.ar    
  19 C19           -3.3936     4.6932    -0.1161 C.ar    
  20 C20           -4.1946     4.4593     0.9952 C.ar    
  21 N21           -3.9870     3.4097     1.7736 N.ar    
  22 C22           -3.0239     2.5440     1.5289 C.ar    
  23 O23           -5.2028     5.3190     1.2861 O.3     
  24 C24           -5.9921     5.0263     2.4409 C.3     
  25 C25           -1.8925     1.4905     6.0040 C.3     
  26 C26           -1.3042     0.0793     5.9360 C.3     
  27 C27           -0.5314    -0.0904     4.6260 C.3     
  28 C28            0.6175     0.9154     4.5811 C.3     
  29 C29            0.6537     4.8704     5.7596 C.1     
  30 N30            0.6700     5.1078     6.8703 N.1     
  31 H31           -2.4073     0.0464     0.0818 H       
  32 H32            2.2611     1.6026    -0.2566 H       
  33 H33            1.7282    -0.7825    -0.5410 H       
  34 H34           -0.5996    -1.5597    -0.3725 H       
  35 H35            1.5352     3.8440    -0.1921 H       
  36 H36           -0.1991     4.2407    -0.2507 H       
  37 H37            1.0411     5.9116     1.4117 H       
  38 H38           -0.1499     2.4136     6.8790 H       
  39 H39           -1.1701     3.5219     5.9261 H       
  40 H40           -1.7300     3.9709    -1.2631 H       
  41 H41           -3.5703     5.5527    -0.7456 H       
  42 H42           -2.8848     1.6990     2.1870 H       
  43 H43           -6.4642     4.0512     2.3207 H       
  44 H44           -5.3534     5.0144     3.3240 H       
  45 H45           -6.7608     5.7901     2.5587 H       
  46 H46           -2.4623     1.6031     6.9264 H       
  47 H47           -2.5483     1.6530     5.1486 H       
  48 H48           -0.6294    -0.0738     6.7782 H       
  49 H49           -2.1107    -0.6527     5.9793 H       
  50 H50           -0.1325    -1.1031     4.5675 H       
  51 H51           -1.2000     0.0869     3.7836 H       
  52 H52            1.1090     0.8656     3.6095 H       
  53 H53            1.3354     0.6854     5.3684 H       
@<TRIPOS>BOND
   1    1    2 ar
   2    1    3 ar
   3    1   17 1
   4    2    6 ar
   5    2   31 1
   6    3    4 ar
   7    3    7 1
   8    4    5 ar
   9    4   32 1
  10    5    6 ar
  11    5   33 1
  12    6   34 1
  13    7    8 1
  14    7   35 1
  15    7   36 1
  16    8    9 1
  17    8   10 2
  18    9   13 am
  19    9   37 1
  20   10   11 1
  21   11   12 2
  22   11   14 1
  23   12   13 1
  24   12   29 1
  25   13   16 2
  26   14   15 1
  27   14   28 1
  28   15   25 1
  29   15   38 1
  30   15   39 1
  31   17   18 ar
  32   17   22 ar
  33   18   19 ar
  34   18   40 1
  35   19   20 ar
  36   19   41 1
  37   20   21 ar
  38   20   23 1
  39   21   22 ar
  40   22   42 1
  41   23   24 1
  42   24   43 1
  43   24   44 1
  44   24   45 1
  45   25   26 1
  46   25   46 1
  47   25   47 1
  48   26   27 1
  49   26   48 1
  50   26   49 1
  51   27   28 1
  52   27   50 1
  53   27   51 1
  54   28   52 1
  55   28   53 1
  56   29   30 3

#	End of record

