#	Name: ASD03580003
#	Creating user name:	WinNT
#	Creation time:	15. 06. 2019 20:43

#	Modifying user name:	WinNT
#	Modification time:	15. 06. 2019 20:43

#	Program:	/corina/corina34_cracker 3.40 0067  02.08.2006

@<TRIPOS>MOLECULE
ASD03580003
  25   24    0    0    0
SMALL
NO_CHARGES


@<TRIPOS>ATOM
   1 P1            -0.0198     1.6058     0.0109 P.3     
   2 O2             1.2145    -2.5816    -0.3804 O.3     
   3 O3             0.0249    -2.7889     3.0788 O.3     
   4 O4             0.0021    -0.0041     0.0020 O.3     
   5 O5             1.5292    -4.9019     0.4911 O.3     
   6 O6             1.4907     2.1630    -0.0006 O.3     
   7 O7            -0.7984     2.1391    -1.2935 O.3     
   8 O8             2.0737    -6.1819     2.6932 O.2     
   9 O9            -0.7125     2.0831     1.2285 O.2     
  10 C10            0.8441    -3.1015     1.9505 C.3     
  11 C11            0.3953    -2.2689     0.7479 C.3     
  12 C12            0.7100    -4.5892     1.6194 C.3     
  13 C13            0.5294    -0.7812     1.0790 C.3     
  14 C14            1.1521    -5.4094     2.8039 C.2     
  15 H15           -0.6450    -2.4971     0.5160 H       
  16 H16            1.8844    -2.8733     2.1825 H       
  17 H17           -0.3303    -4.8175     1.3874 H       
  18 H18            1.5812    -0.5347     1.2240 H       
  19 H19           -0.0246    -0.5607     1.9915 H       
  20 H20            2.1552    -2.4031    -0.2449 H       
  21 H21           -0.9158    -2.9674     2.9433 H       
  22 H22            0.6448    -5.3062     3.7517 H       
  23 H23            2.4699    -4.7234     0.6265 H       
  24 H24            2.0052     1.8889    -0.7720 H       
  25 H25           -0.8503     3.1028    -1.3539 H       
@<TRIPOS>BOND
   1    1    4 1
   2    1    6 1
   3    1    7 1
   4    1    9 2
   5    2   20 1
   6    2   11 1
   7    3   21 1
   8    3   10 1
   9    4   13 1
  10    5   23 1
  11    5   12 1
  12    6   24 1
  13    7   25 1
  14    8   14 2
  15   10   11 1
  16   10   12 1
  17   10   16 1
  18   11   13 1
  19   11   15 1
  20   12   14 1
  21   12   17 1
  22   13   18 1
  23   13   19 1
  24   14   22 1

#	End of record

