#	Name: ASD02039151
#	Creating user name:	WinNT
#	Creation time:	15. 06. 2019 20:17

#	Modifying user name:	WinNT
#	Modification time:	15. 06. 2019 20:17

#	Program:	/corina/corina34_cracker 3.40 0067  02.08.2006

@<TRIPOS>MOLECULE
ASD02039151
  43   46    0    0    0
SMALL
NO_CHARGES


@<TRIPOS>ATOM
   1 N1             0.0020     1.2624     0.3698 N.2     
   2 C2             0.0063    -0.0135     0.0892 C.2     
   3 N3             1.2922    -0.3754    -0.1073 N.2     
   4 C4             1.9960     0.7159     0.0683 C.2     
   5 O5             1.1351     1.6952     0.3618 O.3     
   6 C6             3.4938     0.8427    -0.0397 C.3     
   7 O7             3.8483     1.1704    -1.3846 O.3     
   8 C8             5.1722     1.3219    -1.6545 C.ar    
   9 N9            -1.1049    -0.8433     0.0085 N.pl3   
  10 C10           -2.3914    -0.3043     0.1293 C.ar    
  11 C11           -2.6367     1.0035    -0.2681 C.ar    
  12 C12           -3.9058     1.5357    -0.1486 C.ar    
  13 C13           -4.9359     0.7648     0.3678 C.ar    
  14 C14           -4.6926    -0.5435     0.7659 C.ar    
  15 C15           -3.4238    -1.0790     0.6413 C.ar    
  16 C16            6.1099     1.1567    -0.6382 C.ar    
  17 C17            7.4554     1.3058    -0.8934 C.ar    
  18 C18            7.8881     1.6244    -2.1760 C.ar    
  19 C19            6.9437     1.7922    -3.2064 C.ar    
  20 C20            5.5808     1.6330    -2.9361 C.ar    
  21 N21            9.2316     1.7790    -2.4517 N.am    
  22 C22            9.6524     2.0879    -3.6907 C.2     
  23 C23            8.7461     2.2671    -4.7575 C.2     
  24 C24            7.4131     2.1285    -4.5519 C.2     
  25 O25           10.8467     2.2168    -3.8976 O.2     
  26 O26           -6.1853     1.2900     0.4851 O.3     
  27 F27           -5.6964    -1.2942     1.2698 F       
  28 C28           -6.3638     2.6416     0.0568 C.3     
  29 H29            3.8409     1.6298     0.6297 H       
  30 H30            3.9594    -0.1027     0.2388 H       
  31 H31           -0.9895    -1.7962    -0.1316 H       
  32 H32           -1.8348     1.6048    -0.6705 H       
  33 H33           -4.0956     2.5531    -0.4572 H       
  34 H34           -3.2339    -2.0963     0.9502 H       
  35 H35            5.7790     0.9096     0.3597 H       
  36 H36            8.1739     1.1758    -0.0976 H       
  37 H37            4.8521     1.7603    -3.7230 H       
  38 H38            9.8817     1.6635    -1.7411 H       
  39 H39            9.1158     2.5151    -5.7415 H       
  40 H40            6.7128     2.2632    -5.3630 H       
  41 H41           -5.7151     3.2959     0.6393 H       
  42 H42           -6.1092     2.7246    -0.9998 H       
  43 H43           -7.4030     2.9353     0.2043 H       
@<TRIPOS>BOND
   1    1    2 2
   2    1    5 1
   3    2    3 1
   4    2    9 1
   5    3    4 2
   6    4    5 1
   7    4    6 1
   8    6    7 1
   9    6   29 1
  10    6   30 1
  11    7    8 1
  12    8   16 ar
  13    8   20 ar
  14    9   10 1
  15    9   31 1
  16   10   11 ar
  17   10   15 ar
  18   11   12 ar
  19   11   32 1
  20   12   13 ar
  21   12   33 1
  22   13   14 ar
  23   13   26 1
  24   14   15 ar
  25   14   27 1
  26   15   34 1
  27   16   17 ar
  28   16   35 1
  29   17   18 ar
  30   17   36 1
  31   18   19 ar
  32   18   21 1
  33   19   20 ar
  34   19   24 1
  35   20   37 1
  36   21   22 am
  37   21   38 1
  38   22   23 1
  39   22   25 2
  40   23   24 2
  41   23   39 1
  42   24   40 1
  43   26   28 1
  44   28   41 1
  45   28   42 1
  46   28   43 1

#	End of record

