#	Name: ASD03080038
#	Creating user name:	WinNT
#	Creation time:	15. 06. 2019 20:26

#	Modifying user name:	WinNT
#	Modification time:	15. 06. 2019 20:26

#	Program:	/corina/corina34_cracker 3.40 0067  02.08.2006

@<TRIPOS>MOLECULE
ASD03080038
  26   28    0    0    0
SMALL
NO_CHARGES


@<TRIPOS>ATOM
   1 O1            -0.0144     1.2085     0.0087 O.3     
   2 N2             0.0021    -0.0041     0.0020 N.2     
   3 C3             1.2348    -0.4424    -0.0121 C.2     
   4 N4             2.0459     0.6359    -0.0141 N.2     
   5 C5             1.2413     1.6828    -0.0008 C.2     
   6 C6             3.0151    -2.1962    -0.0376 C.ar    
   7 C7             1.6622    -1.8639    -0.0234 C.ar    
   8 C8             0.7143    -2.8902    -0.0194 C.ar    
   9 C9             1.1640    -4.1997    -0.0299 C.ar    
  10 C10            2.5243    -4.4475    -0.0438 C.ar    
  11 N11            3.3958    -3.4571    -0.0468 N.ar    
  12 C12            1.6454     3.1031     0.0026 C.ar    
  13 C13            0.6741     4.1092     0.0173 C.ar    
  14 C14            1.0604     5.4376     0.0203 C.ar    
  15 C15            2.4072     5.7694     0.0083 C.ar    
  16 C16            3.3717     4.7740    -0.0063 C.ar    
  17 C17            2.9988     3.4468    -0.0032 C.ar    
  18 F18            2.7802     7.0679     0.0103 F       
  19 F19            0.1251     6.4124     0.0345 F       
  20 F20           -0.6373     3.7849     0.0281 F       
  21 H21            3.7584    -1.4127    -0.0453 H       
  22 H22           -0.3425    -2.6678    -0.0081 H       
  23 H23            0.4600    -5.0187    -0.0269 H       
  24 H24            2.8788    -5.4676    -0.0520 H       
  25 H25            4.4187     5.0390    -0.0157 H       
  26 H26            3.7527     2.6735    -0.0100 H       
@<TRIPOS>BOND
   1    1    2 1
   2    1    5 1
   3    2    3 2
   4    3    4 1
   5    3    7 1
   6    4    5 2
   7    5   12 1
   8    6    7 ar
   9    6   11 ar
  10    6   21 1
  11    7    8 ar
  12    8    9 ar
  13    8   22 1
  14    9   10 ar
  15    9   23 1
  16   10   11 ar
  17   10   24 1
  18   12   13 ar
  19   12   17 ar
  20   13   14 ar
  21   13   20 1
  22   14   15 ar
  23   14   19 1
  24   15   16 ar
  25   15   18 1
  26   16   17 ar
  27   16   25 1
  28   17   26 1

#	End of record

