#	Name: ASD01881542
#	Creating user name:	WinNT
#	Creation time:	15. 06. 2019 19:42

#	Modifying user name:	WinNT
#	Modification time:	15. 06. 2019 19:42

#	Program:	/corina/corina34_cracker 3.40 0067  02.08.2006

@<TRIPOS>MOLECULE
ASD01881542
  53   57    0    0    0
SMALL
NO_CHARGES


@<TRIPOS>ATOM
   1 C1            -0.0165     1.3639     0.0095 C.ar    
   2 C2             0.0021    -0.0041     0.0020 C.ar    
   3 C3             1.2281    -0.6597    -0.0132 C.ar    
   4 C4             2.4059     0.1130    -0.0203 C.ar    
   5 C5             2.2917     1.5035    -0.0121 C.ar    
   6 N6             1.1026     2.0686     0.0026 N.ar    
   7 N7             1.6335    -1.9730    -0.0241 N.pl3   
   8 C8             2.9952    -1.9772    -0.0371 C.2     
   9 N9             3.4465    -0.7564    -0.0348 N.2     
  10 C10            0.7619    -3.1505    -0.0217 C.3     
  11 C11            3.8545    -3.2152    -0.0510 C.3     
  12 N12            4.1205    -3.6111    -1.4404 N.3     
  13 C13            5.1533    -4.6771    -1.5018 C.3     
  14 C14            5.7042    -4.6026    -2.9420 C.3     
  15 C15            5.4130    -3.1613    -3.4084 C.3     
  16 C16            4.7107    -2.4863    -2.2108 C.3     
  17 C17            6.8559    -3.6359    -3.2246 C.3     
  18 C18            7.6852    -3.8770    -4.4876 C.3     
  19 O19            8.7768    -2.9556    -4.5238 O.3     
  20 C20            9.6174    -3.0363    -5.5889 C.ar    
  21 C21           10.6989    -2.1718    -5.6882 C.ar    
  22 C22           11.5521    -2.2563    -6.7729 C.ar    
  23 C23           11.3282    -3.2004    -7.7577 C.ar    
  24 C24           10.2514    -4.0624    -7.6605 C.ar    
  25 C25            9.3993    -3.9864    -6.5757 C.ar    
  26 C26           12.2590    -3.2899    -8.9394 C.3     
  27 C27           10.0106    -5.0902    -8.7361 C.3     
  28 Cl28          10.9796    -0.9855    -4.4522 Cl      
  29 H29           -0.9655     1.8795     0.0168 H       
  30 H30           -0.9205    -0.5655     0.0081 H       
  31 H31            3.1803     2.1174    -0.0169 H       
  32 H32            0.5359    -3.4374    -1.0487 H       
  33 H33            1.2659    -3.9746     0.4832 H       
  34 H34           -0.1646    -2.9156     0.5022 H       
  35 H35            4.7976    -3.0085     0.4549 H       
  36 H36            3.3355    -4.0235     0.4641 H       
  37 H37            5.9466    -4.4799    -0.7807 H       
  38 H38            4.7040    -5.6528    -1.3166 H       
  39 H39            5.5364    -5.4614    -3.5920 H       
  40 H40            5.0285    -2.9472    -4.4056 H       
  41 H41            3.9282    -1.8124    -2.5595 H       
  42 H42            5.4347    -1.9462    -1.6006 H       
  43 H43            7.4073    -3.2474    -2.3684 H       
  44 H44            8.0704    -4.8967    -4.4801 H       
  45 H45            7.0580    -3.7320    -5.3672 H       
  46 H46           12.3938    -1.5842    -6.8510 H       
  47 H47            8.5585    -4.6601    -6.5007 H       
  48 H48           13.0684    -3.9839    -8.7127 H       
  49 H49           11.7080    -3.6461    -9.8098 H       
  50 H50           12.6739    -2.3043    -9.1505 H       
  51 H51           10.5372    -6.0106    -8.4835 H       
  52 H52            8.9423    -5.2922    -8.8129 H       
  53 H53           10.3783    -4.7112    -9.6896 H       
@<TRIPOS>BOND
   1    1    2 ar
   2    1    6 ar
   3    1   29 1
   4    2    3 ar
   5    2   30 1
   6    3    4 ar
   7    3    7 1
   8    4    5 ar
   9    4    9 1
  10    5    6 ar
  11    5   31 1
  12    7    8 1
  13    7   10 1
  14    8    9 2
  15    8   11 1
  16   10   32 1
  17   10   33 1
  18   10   34 1
  19   11   12 1
  20   11   35 1
  21   11   36 1
  22   12   13 1
  23   12   16 1
  24   13   14 1
  25   13   37 1
  26   13   38 1
  27   14   15 1
  28   14   17 1
  29   14   39 1
  30   15   16 1
  31   15   17 1
  32   15   40 1
  33   16   41 1
  34   16   42 1
  35   17   18 1
  36   17   43 1
  37   18   19 1
  38   18   44 1
  39   18   45 1
  40   19   20 1
  41   20   21 ar
  42   20   25 ar
  43   21   22 ar
  44   21   28 1
  45   22   23 ar
  46   22   46 1
  47   23   24 ar
  48   23   26 1
  49   24   25 ar
  50   24   27 1
  51   25   47 1
  52   26   48 1
  53   26   49 1
  54   26   50 1
  55   27   51 1
  56   27   52 1
  57   27   53 1

#	End of record

