#	Name: ASD02038555
#	Creating user name:	WinNT
#	Creation time:	15. 06. 2019 20:16

#	Modifying user name:	WinNT
#	Modification time:	15. 06. 2019 20:16

#	Program:	/corina/corina34_cracker 3.40 0067  02.08.2006

@<TRIPOS>MOLECULE
ASD02038555
  63   67    0    0    0
SMALL
NO_CHARGES


@<TRIPOS>ATOM
   1 C1            -0.0172     1.4641    -0.0077 C.3     
   2 N2             0.0026    -0.0052     0.0023 N.3     
   3 C3            -1.3592    -0.5495     0.0884 C.3     
   4 C4             0.7049    -0.5277    -1.1781 C.3     
   5 C5             2.1419    -0.0009    -1.1881 C.3     
   6 N6             2.1221     1.4685    -1.1981 N.3     
   7 C7             3.4168     1.9860    -1.2799 C.ar    
   8 C8             3.6170     3.3604    -1.3024 C.ar    
   9 C9             4.8986     3.8688    -1.3829 C.ar    
  10 C10            5.9819     3.0112    -1.4410 C.ar    
  11 C11            5.7861     1.6424    -1.4188 C.ar    
  12 C12            4.5076     1.1275    -1.3331 C.ar    
  13 C13            1.4197     1.9910    -0.0177 C.3     
  14 C14           -1.8792    -0.3986     1.5193 C.3     
  15 C15           -3.3393    -0.8515     1.5817 C.3     
  16 O16           -3.8599    -0.6022     2.8890 O.3     
  17 O17           -1.0927    -1.2041     2.3994 O.3     
  18 C18           -5.1551    -0.9495     3.1142 C.ar    
  19 C19           -5.7211    -0.7345     4.3604 C.ar    
  20 C20           -5.9082    -1.5135     2.0930 C.ar    
  21 C21           -7.2240    -1.8680     2.3166 C.ar    
  22 C22           -7.7931    -1.6601     3.5632 C.ar    
  23 C23           -7.0413    -1.0887     4.5894 C.ar    
  24 N24           -9.0636    -1.9051     4.0890 N.am    
  25 C25           -9.0548    -1.4986     5.3739 C.2     
  26 O26           -7.8436    -1.0070     5.6791 O.3     
  27 O27           -9.9991    -1.5630     6.1373 O.2     
  28 C28            7.3788     3.5695    -1.5293 C.3     
  29 C29            7.9296     3.7670    -0.1405 C.ar    
  30 C30            8.6254     2.7452     0.4783 C.ar    
  31 C31            9.1313     2.9252     1.7517 C.ar    
  32 C32            8.9410     4.1296     2.4077 C.ar    
  33 C33            8.2439     5.1523     1.7870 C.ar    
  34 C34            7.7435     4.9717     0.5115 C.ar    
  35 F35            9.4347     4.3066     3.6528 F       
  36 H36           -0.5393     1.8147    -0.8980 H       
  37 H37           -0.5314     1.8270     0.8823 H       
  38 H38           -2.0117    -0.0055    -0.5946 H       
  39 H39           -1.3466    -1.6048    -0.1843 H       
  40 H40            0.7172    -1.6170    -1.1414 H       
  41 H41            0.1911    -0.1997    -2.0817 H       
  42 H42            2.6639    -0.3515    -0.2978 H       
  43 H43            2.6560    -0.3637    -2.0781 H       
  44 H44            2.7714     4.0307    -1.2574 H       
  45 H45            5.0549     4.9372    -1.4008 H       
  46 H46            6.6343     0.9755    -1.4644 H       
  47 H47            4.3554     0.0584    -1.3155 H       
  48 H48            1.4074     3.0803    -0.0544 H       
  49 H49            1.9336     1.6630     0.8859 H       
  50 H50           -1.8095     0.6459     1.8230 H       
  51 H51           -3.9232    -0.2977     0.8465 H       
  52 H52           -3.3986    -1.9179     1.3643 H       
  53 H53           -1.1081    -2.1477     2.1882 H       
  54 H54           -5.1346    -0.2920     5.1519 H       
  55 H55           -5.4641    -1.6749     1.1218 H       
  56 H56           -7.8087    -2.3063     1.5214 H       
  57 H57           -9.8147    -2.2962     3.6160 H       
  58 H58            8.0144     2.8734    -2.0766 H       
  59 H59            7.3553     4.5267    -2.0503 H       
  60 H60            8.7734     1.8057    -0.0335 H       
  61 H61            9.6745     2.1267     2.2351 H       
  62 H62            8.0948     6.0921     2.2978 H       
  63 H63            7.1997     5.7693     0.0271 H       
@<TRIPOS>BOND
   1    1    2 1
   2    1   13 1
   3    1   36 1
   4    1   37 1
   5    2    3 1
   6    2    4 1
   7    3   14 1
   8    3   38 1
   9    3   39 1
  10    4    5 1
  11    4   40 1
  12    4   41 1
  13    5    6 1
  14    5   42 1
  15    5   43 1
  16    6    7 1
  17    6   13 1
  18    7    8 ar
  19    7   12 ar
  20    8    9 ar
  21    8   44 1
  22    9   10 ar
  23    9   45 1
  24   10   11 ar
  25   10   28 1
  26   11   12 ar
  27   11   46 1
  28   12   47 1
  29   13   48 1
  30   13   49 1
  31   14   15 1
  32   14   17 1
  33   14   50 1
  34   15   16 1
  35   15   51 1
  36   15   52 1
  37   16   18 1
  38   17   53 1
  39   18   19 ar
  40   18   20 ar
  41   19   23 ar
  42   19   54 1
  43   20   21 ar
  44   20   55 1
  45   21   22 ar
  46   21   56 1
  47   22   23 ar
  48   22   24 1
  49   23   26 1
  50   24   25 am
  51   24   57 1
  52   25   26 1
  53   25   27 2
  54   28   29 1
  55   28   58 1
  56   28   59 1
  57   29   30 ar
  58   29   34 ar
  59   30   31 ar
  60   30   60 1
  61   31   32 ar
  62   31   61 1
  63   32   33 ar
  64   32   35 1
  65   33   34 ar
  66   33   62 1
  67   34   63 1

#	End of record

