#	Name: ASD01901548
#	Creating user name:	WinNT
#	Creation time:	15. 06. 2019 19:53

#	Modifying user name:	WinNT
#	Modification time:	15. 06. 2019 19:53

#	Program:	/corina/corina34_cracker 3.40 0067  02.08.2006

@<TRIPOS>MOLECULE
ASD01901548
  31   34    0    0    0
SMALL
NO_CHARGES


@<TRIPOS>ATOM
   1 C1             1.1749     1.7682     0.3264 C.3     
   2 C2             0.9986     0.2773     0.1956 C.2     
   3 N3             1.0796    -0.4123    -0.9004 N.2     
   4 O4             0.8558    -1.7798    -0.6220 O.3     
   5 C5             0.6282    -1.9353     0.6991 C.ar    
   6 C6             0.3572    -3.0414     1.4952 C.ar    
   7 C7             0.1644    -2.8853     2.8499 C.ar    
   8 C8             0.2390    -1.6225     3.4349 C.ar    
   9 N9             0.0409    -1.4792     4.8126 N.pl3   
  10 C10           -0.4854    -0.2886     5.3232 C.2     
  11 N11           -0.9277     0.7213     4.6221 N.2     
  12 N12           -1.3775     1.7354     5.4739 N.pl3   
  13 H13           -1.7507     2.5844     5.1896 H       
  14 C14           -1.2071     1.3381     6.7738 C.ar    
  15 C15           -1.4714     1.9292     8.0088 C.ar    
  16 C16           -1.1624     1.2193     9.1523 C.ar    
  17 C17           -0.6040    -0.0477     9.0444 C.ar    
  18 N18           -0.3608    -0.5902     7.8730 N.ar    
  19 C19           -0.6455     0.0474     6.7399 C.ar    
  20 C20            0.5086    -0.5106     2.6579 C.ar    
  21 C21            0.7102    -0.6611     1.2843 C.ar    
  22 H22            2.2250     1.9951     0.5105 H       
  23 H23            0.8543     2.2542    -0.5951 H       
  24 H24            0.5729     2.1336     1.1583 H       
  25 H25            0.2974    -4.0241     1.0513 H       
  26 H26           -0.0466    -3.7484     3.4638 H       
  27 H27            0.2686    -2.2059     5.4134 H       
  28 H28           -1.9059     2.9160     8.0693 H       
  29 H29           -1.3537     1.6472    10.1253 H       
  30 H30           -0.3644    -0.5982     9.9421 H       
  31 H31            0.5667     0.4678     3.1115 H       
@<TRIPOS>BOND
   1    1    2 1
   2    1   22 1
   3    1   23 1
   4    1   24 1
   5    2   21 1
   6    2    3 2
   7    3    4 1
   8    4    5 1
   9    5   21 ar
  10    5    6 ar
  11    6    7 ar
  12    6   25 1
  13    7    8 ar
  14    7   26 1
  15    8    9 1
  16    8   20 ar
  17    9   10 1
  18    9   27 1
  19   10   19 1
  20   10   11 2
  21   11   12 1
  22   12   13 1
  23   12   14 1
  24   14   19 ar
  25   14   15 ar
  26   15   16 ar
  27   15   28 1
  28   16   17 ar
  29   16   29 1
  30   17   18 ar
  31   17   30 1
  32   18   19 ar
  33   20   21 ar
  34   20   31 1

#	End of record

