#	Name: ASD08178191
#	Creating user name:	WinNT
#	Creation time:	15. 06. 2019 21:18

#	Modifying user name:	WinNT
#	Modification time:	15. 06. 2019 21:18

#	Program:	/corina/corina34_cracker 3.40 0067  02.08.2006

@<TRIPOS>MOLECULE
ASD08178191
  78   82    0    0    0
SMALL
NO_CHARGES


@<TRIPOS>ATOM
   1 C1            -0.0155     1.2947     0.0092 C.2     
   2 N2             0.0021    -0.0041     0.0020 N.2     
   3 N3            -1.1080    -0.6053     0.0094 N.2     
   4 C4            -2.1692     0.1372     0.0235 C.2     
   5 S5            -1.6454     1.8216     0.0350 S.3     
   6 C6            -3.5951    -0.3504     0.0340 C.3     
   7 C7            -4.0644    -0.5229     1.4800 C.3     
   8 C8            -5.5121    -1.0179     1.4907 C.3     
   9 C9            -5.9814    -1.1905     2.9367 C.3     
  10 C10           -7.4073    -1.6780     2.9473 C.2     
  11 N11           -7.7918    -2.9148     2.9447 N.2     
  12 N12           -9.0376    -3.1191     2.9550 N.2     
  13 C13           -9.8187    -2.0813     2.9671 C.2     
  14 S14           -8.8524    -0.6668     2.9729 S.3     
  15 N15          -11.2091    -2.1133     2.9791 N.am    
  16 C16          -11.8559    -3.2957     2.9793 C.2     
  17 C17          -13.3625    -3.3304     2.9924 C.3     
  18 O18          -11.2256    -4.3318     2.9690 O.2     
  19 C19          -13.8320    -4.7624     2.9898 C.ar    
  20 C20          -14.0368    -5.4244     4.1866 C.ar    
  21 C21          -14.0629    -5.4107     1.7923 C.ar    
  22 C22          -14.4952    -6.7292     1.7906 C.ar    
  23 C23          -14.6944    -7.3928     2.9923 C.ar    
  24 C24          -14.4671    -6.7382     4.1876 C.ar    
  25 N25            1.1034     2.1206     0.0029 N.am    
  26 C26            2.3386     1.5818    -0.0123 C.2     
  27 C27            3.5511     2.4767    -0.0190 C.3     
  28 O28            2.4745     0.3766    -0.0205 O.2     
  29 C29            4.7989     1.6319    -0.0361 C.ar    
  30 C30            5.3595     1.2513    -1.2410 C.ar    
  31 C31            6.5041     0.4764    -1.2567 C.ar    
  32 C32            7.0884     0.0825    -0.0674 C.ar    
  33 C33            6.5283     0.4638     1.1375 C.ar    
  34 C34            5.3862     1.2424     1.1531 C.ar    
  35 O35          -14.7235    -7.3692     0.6137 O.3     
  36 C36          -15.1671    -8.7256     0.6882 C.3     
  37 C37          -15.3692    -9.2744    -0.7256 C.3     
  38 N38          -14.0759    -9.3260    -1.4204 N.3     
  39 C39          -14.1875   -10.0634    -2.6873 C.3     
  40 C40          -12.8354   -10.0417    -3.4050 C.3     
  41 O41          -11.8353   -10.5930    -2.5440 O.3     
  42 C42          -11.6994    -9.8986    -1.3011 C.3     
  43 C43          -13.0400    -9.9189    -0.5621 C.3     
  44 H44           -4.2315     0.3769    -0.4702 H       
  45 H45           -3.6557    -1.3073    -0.4843 H       
  46 H46           -3.4280    -1.2502     1.9842 H       
  47 H47           -4.0038     0.4340     1.9984 H       
  48 H48           -6.1485    -0.2906     0.9865 H       
  49 H49           -5.5727    -1.9748     0.9724 H       
  50 H50           -5.3450    -1.9177     3.4409 H       
  51 H51           -5.9207    -0.2335     3.4550 H       
  52 H52          -11.7132    -1.2847     2.9874 H       
  53 H53          -13.7297    -2.8292     3.8879 H       
  54 H54          -13.7453    -2.8210     2.1080 H       
  55 H55          -13.8599    -4.9143     5.1219 H       
  56 H56          -13.9074    -4.8918     0.8580 H       
  57 H57          -15.0312    -8.4190     2.9937 H       
  58 H58          -14.6220    -7.2544     5.1235 H       
  59 H59            0.9948     3.0845     0.0095 H       
  60 H60            3.5296     3.1110    -0.9053 H       
  61 H61            3.5470     3.1008     0.8746 H       
  62 H62            4.9030     1.5591    -2.1701 H       
  63 H63            6.9417     0.1785    -2.1980 H       
  64 H64            7.9822    -0.5236    -0.0796 H       
  65 H65            6.9846     0.1558     2.0666 H       
  66 H66            4.9486     1.5404     2.0945 H       
  67 H67          -14.4186    -9.3246     1.2069 H       
  68 H68          -16.1098    -8.7701     1.2334 H       
  69 H69          -15.7915   -10.2777    -0.6690 H       
  70 H70          -16.0505    -8.6238    -1.2740 H       
  71 H71          -14.4751   -11.0950    -2.4839 H       
  72 H72          -14.9417    -9.5922    -3.3175 H       
  73 H73          -12.8978   -10.6353    -4.3171 H       
  74 H74          -12.5731    -9.0140    -3.6562 H       
  75 H75          -10.9403   -10.3888    -0.6915 H       
  76 H76          -11.4041    -8.8667    -1.4911 H       
  77 H77          -12.9566    -9.3422     0.3591 H       
  78 H78          -13.3092   -10.9481    -0.3247 H       
@<TRIPOS>BOND
   1    1    2 2
   2    1   25 1
   3    1    5 1
   4    2    3 1
   5    3    4 2
   6    4    5 1
   7    4    6 1
   8    6    7 1
   9    6   44 1
  10    6   45 1
  11    7    8 1
  12    7   46 1
  13    7   47 1
  14    8    9 1
  15    8   48 1
  16    8   49 1
  17    9   10 1
  18    9   50 1
  19    9   51 1
  20   10   11 2
  21   10   14 1
  22   11   12 1
  23   12   13 2
  24   13   14 1
  25   13   15 1
  26   15   16 am
  27   15   52 1
  28   16   17 1
  29   16   18 2
  30   17   19 1
  31   17   53 1
  32   17   54 1
  33   19   20 ar
  34   19   21 ar
  35   20   24 ar
  36   20   55 1
  37   21   22 ar
  38   21   56 1
  39   22   23 ar
  40   22   35 1
  41   23   24 ar
  42   23   57 1
  43   24   58 1
  44   25   26 am
  45   25   59 1
  46   26   27 1
  47   26   28 2
  48   27   29 1
  49   27   60 1
  50   27   61 1
  51   29   30 ar
  52   29   34 ar
  53   30   31 ar
  54   30   62 1
  55   31   32 ar
  56   31   63 1
  57   32   33 ar
  58   32   64 1
  59   33   34 ar
  60   33   65 1
  61   34   66 1
  62   35   36 1
  63   36   37 1
  64   36   67 1
  65   36   68 1
  66   37   38 1
  67   37   69 1
  68   37   70 1
  69   38   39 1
  70   38   43 1
  71   39   40 1
  72   39   71 1
  73   39   72 1
  74   40   41 1
  75   40   73 1
  76   40   74 1
  77   41   42 1
  78   42   43 1
  79   42   75 1
  80   42   76 1
  81   43   77 1
  82   43   78 1

#	End of record

