#	Name: ASD08830020
#	Creating user name:	WinNT
#	Creation time:	15. 06. 2019 21:19

#	Modifying user name:	WinNT
#	Modification time:	15. 06. 2019 21:19

#	Program:	/corina/corina34_cracker 3.40 0067  02.08.2006

@<TRIPOS>MOLECULE
ASD08830020
  57   60    0    0    0
SMALL
NO_CHARGES


@<TRIPOS>ATOM
   1 C1            -0.1084     1.1109    -0.6219 C.ar    
   2 C2            -0.0696    -0.3008    -0.7560 C.ar    
   3 C3             1.0938     1.8338    -0.5038 C.ar    
   4 C4             2.2830     1.1819    -0.5187 C.ar    
   5 C5             2.3363    -0.2198    -0.6517 C.ar    
   6 C6             1.1681    -0.9601    -0.7698 C.ar    
   7 C7             3.6385    -0.9031    -0.6661 C.2     
   8 C8             4.9101    -0.1043    -0.5389 C.3     
   9 C9             6.1126    -1.0493    -0.5824 C.3     
  10 N10            7.3520    -0.2706    -0.4584 N.3     
  11 O11            3.6891    -2.1094    -0.7804 O.2     
  12 C12           -1.3502     1.7661    -0.6152 C.ar    
  13 C13           -1.2750    -1.0159    -0.8735 C.ar    
  14 C14           -2.4600    -0.3460    -0.8571 C.ar    
  15 C15           -2.4970     1.0415    -0.7368 C.ar    
  16 C16            8.5303    -1.1470    -0.4963 C.3     
  17 C17            9.7989    -0.3019    -0.3647 C.3     
  18 C18           11.0183    -1.2227    -0.2788 C.3     
  19 C19            9.9322     0.6113    -1.5855 C.3     
  20 C20           11.1845     1.4804    -1.4338 C.3     
  21 N21           12.3425     0.6053    -1.2056 N.am    
  22 C22           12.2830    -0.3744    -0.1123 C.3     
  23 C23           13.4384     0.6994    -1.9845 C.2     
  24 O24           13.4357     1.4364    -2.9506 O.2     
  25 C25           14.6463    -0.0958    -1.6628 C.ar    
  26 C26           15.3942    -0.7072    -2.6736 C.ar    
  27 C27           15.0733    -0.2508    -0.3405 C.ar    
  28 C28           16.5137    -1.4396    -2.3288 C.ar    
  29 N29           16.8782    -1.5657    -1.0683 N.ar    
  30 C30           16.2052    -1.0008    -0.0857 C.ar    
  31 H31            1.0690     2.9087    -0.4015 H       
  32 H32            3.2006     1.7443    -0.4278 H       
  33 H33            1.2119    -2.0344    -0.8716 H       
  34 H34            4.9766     0.6065    -1.3625 H       
  35 H35            4.9066     0.4358     0.4079 H       
  36 H36            6.0461    -1.7602     0.2412 H       
  37 H37            6.1160    -1.5895    -1.5292 H       
  38 H38            7.4062     0.4392    -1.1734 H       
  39 H39           -1.3958     2.8403    -0.5135 H       
  40 H40           -1.2606    -2.0909    -0.9766 H       
  41 H41           -3.3843    -0.8972    -0.9478 H       
  42 H42           -3.4502     1.5490    -0.7261 H       
  43 H43            8.4806    -1.8586     0.3279 H       
  44 H44            8.5506    -1.6879    -1.4424 H       
  45 H45            9.7384     0.3057     0.5382 H       
  46 H46           10.9117    -1.8888     0.5774 H       
  47 H47           11.0937    -1.8128    -1.1922 H       
  48 H48           10.0177     0.0039    -2.4865 H       
  49 H49            9.0524     1.2506    -1.6593 H       
  50 H50           11.3388     2.0608    -2.3434 H       
  51 H51           11.0619     2.1531    -0.5850 H       
  52 H52           12.2500     0.1470     0.8443 H       
  53 H53           13.1621    -1.0178    -0.1500 H       
  54 H54           15.1009    -0.6088    -3.7084 H       
  55 H55           14.5268     0.2091     0.4695 H       
  56 H56           17.0979    -1.9157    -3.1024 H       
  57 H57           16.5401    -1.1306     0.9328 H       
@<TRIPOS>BOND
   1    1    2 ar
   2    1    3 ar
   3    1   12 ar
   4    2   13 ar
   5    2    6 ar
   6    3    4 ar
   7    3   31 1
   8    4    5 ar
   9    4   32 1
  10    5    6 ar
  11    5    7 1
  12    6   33 1
  13    7    8 1
  14    7   11 2
  15    8    9 1
  16    8   34 1
  17    8   35 1
  18    9   10 1
  19    9   36 1
  20    9   37 1
  21   10   16 1
  22   10   38 1
  23   12   15 ar
  24   12   39 1
  25   13   14 ar
  26   13   40 1
  27   14   15 ar
  28   14   41 1
  29   15   42 1
  30   16   17 1
  31   16   43 1
  32   16   44 1
  33   17   18 1
  34   17   19 1
  35   17   45 1
  36   18   22 1
  37   18   46 1
  38   18   47 1
  39   19   20 1
  40   19   48 1
  41   19   49 1
  42   20   21 1
  43   20   50 1
  44   20   51 1
  45   21   22 1
  46   21   23 am
  47   22   52 1
  48   22   53 1
  49   23   24 2
  50   23   25 1
  51   25   26 ar
  52   25   27 ar
  53   26   28 ar
  54   26   54 1
  55   27   30 ar
  56   27   55 1
  57   28   29 ar
  58   28   56 1
  59   29   30 ar
  60   30   57 1

#	End of record

