#	Name: ASD04882325
#	Creating user name:	WinNT
#	Creation time:	15. 06. 2019 20:54

#	Modifying user name:	WinNT
#	Modification time:	15. 06. 2019 20:54

#	Program:	/corina/corina34_cracker 3.40 0067  02.08.2006

@<TRIPOS>MOLECULE
ASD04882325
  78   82    0    0    0
SMALL
NO_CHARGES


@<TRIPOS>ATOM
   1 N1            -0.0169     1.3971     0.0097 N.am    
   2 C2             0.1092     0.0022    -0.0339 C.ar    
   3 C3            -1.0283    -0.8058     0.0461 C.ar    
   4 C4            -0.9047    -2.1898     0.0031 C.ar    
   5 C5             0.3386    -2.7697    -0.1180 C.ar    
   6 C6             1.4804    -1.9676    -0.1981 C.ar    
   7 C7             1.3582    -0.5757    -0.1617 C.ar    
   8 N8            -2.2873    -0.2237     0.1696 N.3     
   9 C9            -3.1536    -0.5985    -0.9568 C.3     
  10 C10           -2.9101    -0.5827     1.4514 C.3     
  11 C11           -4.2535     0.1387     1.5825 C.3     
  12 N12           -5.1198    -0.2361     0.4561 N.3     
  13 C13           -4.4970     0.1228    -0.8257 C.3     
  14 C14            2.8122    -2.5890    -0.3269 C.2     
  15 O15            3.8049    -1.8904    -0.3965 O.2     
  16 C16            0.9213     2.1768    -0.5632 C.2     
  17 C17            0.7447     3.6394    -0.5951 C.2     
  18 O18            1.9138     1.6732    -1.0538 O.2     
  19 N19            2.9285    -3.9311    -0.3675 N.am    
  20 C20            1.6607     4.6328    -1.1745 C.2     
  21 C21            1.0865     5.8280    -0.9691 C.2     
  22 O22           -0.0785     5.6516    -0.3265 O.3     
  23 C23           -0.3057     4.3543    -0.0984 C.2     
  24 C24            4.2510    -4.5483    -0.4954 C.3     
  25 C25            4.1055    -6.0481    -0.5171 C.ar    
  26 C26           -6.3826     0.3477     0.5799 C.ar    
  27 C27           -6.5090     1.7302     0.6237 C.ar    
  28 C28           -7.5156    -0.4530     0.6540 C.ar    
  29 C29           -8.7625     0.1275     0.7764 C.ar    
  30 C30           -8.8843     1.5043     0.8249 C.ar    
  31 C31           -7.7593     2.3042     0.7462 C.ar    
  32 C32           -7.3839    -1.9532     0.6002 C.3     
  33 C33            3.9361    -6.7087    -1.7192 C.ar    
  34 C34            4.1471    -6.7638     0.6651 C.ar    
  35 C35            4.0136    -8.1393     0.6453 C.ar    
  36 C36            3.8381    -8.7995    -0.5567 C.ar    
  37 C37            3.8026    -8.0846    -1.7391 C.ar    
  38 C38            3.6113    -8.8043    -3.0493 C.3     
  39 N39            2.1767    -8.9002    -3.3503 N.3     
  40 C40            1.9574    -9.3796    -4.7215 C.3     
  41 C41            1.4906    -9.7595    -2.3762 C.3     
  42 H42           -0.7816     1.8014     0.4487 H       
  43 H43           -1.7855    -2.8117     0.0651 H       
  44 H44            0.4314    -3.8452    -0.1509 H       
  45 H45            2.2387     0.0467    -0.2233 H       
  46 H46           -2.6765    -0.3112    -1.8937 H       
  47 H47           -3.3169    -1.6762    -0.9470 H       
  48 H48           -3.0707    -1.6601     1.4885 H       
  49 H49           -2.2554    -0.2838     2.2701 H       
  50 H50           -4.7306    -0.1486     2.5195 H       
  51 H51           -4.0902     1.2163     1.5727 H       
  52 H52           -4.3364     1.2003    -0.8628 H       
  53 H53           -5.1517    -0.1760    -1.6444 H       
  54 H54            2.1365    -4.4885    -0.3120 H       
  55 H55            2.6034     4.4399    -1.6650 H       
  56 H56            1.4966     6.7800    -1.2722 H       
  57 H57           -1.1701     3.9426     0.4013 H       
  58 H58            4.7192    -4.2153    -1.4217 H       
  59 H59            4.8719    -4.2557     0.3513 H       
  60 H60           -5.6306     2.3555     0.5623 H       
  61 H61           -9.6436    -0.4943     0.8340 H       
  62 H62           -9.8608     1.9558     0.9200 H       
  63 H63           -7.8579     3.3791     0.7845 H       
  64 H64           -7.2648    -2.3440     1.6107 H       
  65 H65           -8.2792    -2.3806     0.1486 H       
  66 H66           -6.5125    -2.2203     0.0023 H       
  67 H67            3.9077    -6.1500    -2.6431 H       
  68 H68            4.2842    -6.2480     1.6041 H       
  69 H69            4.0468    -8.6984     1.5687 H       
  70 H70            3.7342    -9.8744    -0.5723 H       
  71 H71            4.1131    -8.2520    -3.8438 H       
  72 H72            4.0355    -9.8059    -2.9790 H       
  73 H73            2.4056   -10.3664    -4.8374 H       
  74 H74            0.8871    -9.4413    -4.9181 H       
  75 H75            2.4169    -8.6868    -5.4265 H       
  76 H76            1.6107    -9.3429    -1.3762 H       
  77 H77            0.4302    -9.8131    -2.6225 H       
  78 H78            1.9219   -10.7601    -2.4072 H       
@<TRIPOS>BOND
   1    1    2 1
   2    1   16 am
   3    1   42 1
   4    2    3 ar
   5    2    7 ar
   6    3    4 ar
   7    3    8 1
   8    4    5 ar
   9    4   43 1
  10    5    6 ar
  11    5   44 1
  12    6    7 ar
  13    6   14 1
  14    7   45 1
  15    8    9 1
  16    8   10 1
  17    9   13 1
  18    9   46 1
  19    9   47 1
  20   10   11 1
  21   10   48 1
  22   10   49 1
  23   11   12 1
  24   11   50 1
  25   11   51 1
  26   12   13 1
  27   12   26 1
  28   13   52 1
  29   13   53 1
  30   14   15 2
  31   14   19 am
  32   16   18 2
  33   16   17 1
  34   17   20 1
  35   17   23 2
  36   19   24 1
  37   19   54 1
  38   20   21 2
  39   20   55 1
  40   21   22 1
  41   21   56 1
  42   22   23 1
  43   23   57 1
  44   24   25 1
  45   24   58 1
  46   24   59 1
  47   25   33 ar
  48   25   34 ar
  49   26   27 ar
  50   26   28 ar
  51   27   31 ar
  52   27   60 1
  53   28   29 ar
  54   28   32 1
  55   29   30 ar
  56   29   61 1
  57   30   31 ar
  58   30   62 1
  59   31   63 1
  60   32   64 1
  61   32   65 1
  62   32   66 1
  63   33   37 ar
  64   33   67 1
  65   34   35 ar
  66   34   68 1
  67   35   36 ar
  68   35   69 1
  69   36   37 ar
  70   36   70 1
  71   37   38 1
  72   38   39 1
  73   38   71 1
  74   38   72 1
  75   39   40 1
  76   39   41 1
  77   40   73 1
  78   40   74 1
  79   40   75 1
  80   41   76 1
  81   41   77 1
  82   41   78 1

#	End of record

