#	Name: ASD01883765
#	Creating user name:	WinNT
#	Creation time:	15. 06. 2019 19:47

#	Modifying user name:	WinNT
#	Modification time:	15. 06. 2019 19:47

#	Program:	/corina/corina34_cracker 3.40 0067  02.08.2006

@<TRIPOS>MOLECULE
ASD01883765
  39   42    0    0    0
SMALL
NO_CHARGES


@<TRIPOS>ATOM
   1 C1            -0.0169     1.3984     0.0097 C.2     
   2 C2             0.0021    -0.0041     0.0020 C.2     
   3 C3            -1.2223    -0.7047     0.0099 C.2     
   4 C4            -2.3969    -0.0475     0.0242 C.2     
   5 N5            -2.4615     1.3157     0.0316 N.pl3   
   6 C6            -1.3172     2.0717     0.0319 C.2     
   7 C7            -3.5157     2.1918     0.0455 C.2     
   8 C8            -2.9979     3.4382     0.0471 C.2     
   9 N9            -1.6639     3.3462     0.0398 N.2     
  10 C10           -4.9788     1.8309     0.0567 C.3     
  11 C11            1.2855    -0.7368    -0.0146 C.ar    
  12 C12            1.6494    -1.5327     1.0736 C.ar    
  13 C13            2.8508    -2.2175     1.0569 C.ar    
  14 C14            3.6915    -2.1109    -0.0510 C.ar    
  15 C15            3.3307    -1.3186    -1.1328 C.ar    
  16 C16            2.1320    -0.6378    -1.1211 C.ar    
  17 C17           -5.5169     1.8380    -1.3755 C.3     
  18 F18           -4.8122     0.9045    -2.1431 F       
  19 F19           -6.8752     1.5029    -1.3651 F       
  20 F20           -5.3554     3.1131    -1.9280 F       
  21 C21            1.2014     2.1510     0.0021 C.1     
  22 N22            2.1678     2.7479    -0.0039 N.1     
  23 O23            3.2007    -2.9833     2.1246 O.3     
  24 C24            4.1876    -3.9973     1.9213 C.3     
  25 C25            5.3913    -3.3777     1.1972 C.3     
  26 N26            4.9044    -2.8112    -0.0720 N.pl3   
  27 H27           -1.2171    -1.7847     0.0041 H       
  28 H28           -3.3154    -0.6157     0.0295 H       
  29 H29           -3.5662     4.3566     0.0565 H       
  30 H30           -5.1047     0.8374     0.4872 H       
  31 H31           -5.5279     2.5582     0.6548 H       
  32 H32            0.9934    -1.6132     1.9277 H       
  33 H33            3.9880    -1.2389    -1.9860 H       
  34 H34            1.8520    -0.0216    -1.9626 H       
  35 H35            4.5062    -4.3955     2.8847 H       
  36 H36            3.7682    -4.7987     1.3131 H       
  37 H37            5.8265    -2.5893     1.8112 H       
  38 H38            6.1379    -4.1461     0.9968 H       
  39 H39            5.4069    -2.9190    -0.8946 H       
@<TRIPOS>BOND
   1    1    2 2
   2    1   21 1
   3    1    6 1
   4    2    3 1
   5    2   11 1
   6    3    4 2
   7    3   27 1
   8    4    5 1
   9    4   28 1
  10    5    6 1
  11    5    7 1
  12    6    9 2
  13    7    8 2
  14    7   10 1
  15    8    9 1
  16    8   29 1
  17   10   17 1
  18   10   30 1
  19   10   31 1
  20   11   12 ar
  21   11   16 ar
  22   12   13 ar
  23   12   32 1
  24   13   14 ar
  25   13   23 1
  26   14   15 ar
  27   14   26 1
  28   15   16 ar
  29   15   33 1
  30   16   34 1
  31   17   18 1
  32   17   19 1
  33   17   20 1
  34   21   22 3
  35   23   24 1
  36   24   25 1
  37   24   35 1
  38   24   36 1
  39   25   26 1
  40   25   37 1
  41   25   38 1
  42   26   39 1

#	End of record

