#	Name: ASD08170011
#	Creating user name:	WinNT
#	Creation time:	15. 06. 2019 21:17

#	Modifying user name:	WinNT
#	Modification time:	15. 06. 2019 21:17

#	Program:	/corina/corina34_cracker 3.40 0067  02.08.2006

@<TRIPOS>MOLECULE
ASD08170011
  66   72    0    0    0
SMALL
NO_CHARGES


@<TRIPOS>ATOM
   1 C1            -0.0168     1.3862     0.0097 C.ar    
   2 C2             0.0021    -0.0041     0.0020 C.ar    
   3 C3             1.1854    -0.6764    -0.0623 C.ar    
   4 C4             2.3902     0.0403    -0.1310 C.ar    
   5 C5             2.3794     1.4538     0.0093 C.ar    
   6 C6             1.1455     2.1045     0.0024 C.ar    
   7 C7             3.6018    -0.6296    -0.3899 C.ar    
   8 C8             4.7755     0.0502    -0.4175 C.ar    
   9 C9             4.8256     1.4174    -0.1501 C.ar    
  10 C10            3.6609     2.1441     0.1511 C.ar    
  11 N11            6.0373     2.0922    -0.2223 N.pl3   
  12 C12            6.2675     3.1758     0.7382 C.3     
  13 C13            5.0157     4.0152     0.8495 C.2     
  14 C14            3.7844     3.4750     0.6253 C.2     
  15 C15            5.1701     5.3725     1.1725 C.2     
  16 C16            3.9711     6.2663     1.3335 C.3     
  17 C17            2.8177     5.4260     1.8867 C.3     
  18 C18            2.5440     4.2823     0.9096 C.3     
  19 C19            3.1787     4.8709     3.2644 C.3     
  20 C20            1.5642     6.3015     2.0049 C.3     
  21 O21            6.2843     5.8335     1.3228 O.2     
  22 C22            6.6034     2.5902     2.0856 C.ar    
  23 C23            7.5862     3.1739     2.8648 C.ar    
  24 C24            7.8982     2.6423     4.0993 C.ar    
  25 C25            7.2204     1.5143     4.5611 C.ar    
  26 C26            6.2306     0.9304     3.7709 C.ar    
  27 C27            5.9237     1.4745     2.5406 C.ar    
  28 C28            7.5509     0.9383     5.8853 C.ar    
  29 C29            6.5249     0.6531     6.8172 C.ar    
  30 C30            6.8661     0.1023     8.0766 C.ar    
  31 C31            8.2149    -0.1516     8.3786 C.ar    
  32 C32            9.1840     0.1318     7.4643 C.ar    
  33 C33            8.8656     0.6682     6.2218 C.ar    
  34 C34            5.1785     0.9060     6.5171 C.ar    
  35 C35            4.2169     0.6195     7.4383 C.ar    
  36 C36            4.5509     0.0780     8.6778 C.ar    
  37 C37            5.8470    -0.1812     9.0025 C.ar    
  38 H38           -0.9626     1.9076     0.0260 H       
  39 H39           -0.9249    -0.5536     0.0498 H       
  40 H40            1.1960    -1.7564    -0.0604 H       
  41 H41            1.0760     3.1782    -0.0763 H       
  42 H42            3.5945    -1.6936    -0.5720 H       
  43 H43            5.6888    -0.4766    -0.6518 H       
  44 H44            6.7045     1.8545    -0.8829 H       
  45 H45            7.0943     3.7975     0.3960 H       
  46 H46            4.2040     7.0739     2.0265 H       
  47 H47            3.6912     6.6821     0.3658 H       
  48 H48            2.1452     4.6841    -0.0191 H       
  49 H49            1.8025     3.6281     1.3838 H       
  50 H50            3.3773     5.6963     3.9480 H       
  51 H51            2.3489     4.2754     3.6451 H       
  52 H52            4.0674     4.2451     3.1825 H       
  53 H53            1.2960     6.6867     1.0211 H       
  54 H54            0.7407     5.7058     2.3988 H       
  55 H55            1.7650     7.1344     2.6788 H       
  56 H56            8.1106     4.0473     2.5060 H       
  57 H57            8.6659     3.0986     4.7067 H       
  58 H58            5.7025     0.0567     4.1232 H       
  59 H59            5.1571     1.0234     1.9279 H       
  60 H60            8.4834    -0.5716     9.3367 H       
  61 H61           10.2174    -0.0671     7.7073 H       
  62 H62            9.6532     0.8838     5.5150 H       
  63 H63            4.9054     1.3263     5.5605 H       
  64 H64            3.1808     0.8153     7.2046 H       
  65 H65            3.7698    -0.1400     9.3911 H       
  66 H66            6.0914    -0.6014     9.9669 H       
@<TRIPOS>BOND
   1    1    2 ar
   2    1    6 ar
   3    1   38 1
   4    2    3 ar
   5    2   39 1
   6    3    4 ar
   7    3   40 1
   8    4    5 ar
   9    4    7 ar
  10    5    6 ar
  11    5   10 ar
  12    6   41 1
  13    7    8 ar
  14    7   42 1
  15    8    9 ar
  16    8   43 1
  17    9   10 ar
  18    9   11 1
  19   10   14 1
  20   11   12 1
  21   11   44 1
  22   12   13 1
  23   12   22 1
  24   12   45 1
  25   13   14 2
  26   13   15 1
  27   14   18 1
  28   15   16 1
  29   15   21 2
  30   16   17 1
  31   16   46 1
  32   16   47 1
  33   17   18 1
  34   17   19 1
  35   17   20 1
  36   18   48 1
  37   18   49 1
  38   19   50 1
  39   19   51 1
  40   19   52 1
  41   20   53 1
  42   20   54 1
  43   20   55 1
  44   22   23 ar
  45   22   27 ar
  46   23   24 ar
  47   23   56 1
  48   24   25 ar
  49   24   57 1
  50   25   26 ar
  51   25   28 1
  52   26   27 ar
  53   26   58 1
  54   27   59 1
  55   28   29 ar
  56   28   33 ar
  57   29   30 ar
  58   29   34 ar
  59   30   31 ar
  60   30   37 ar
  61   31   32 ar
  62   31   60 1
  63   32   33 ar
  64   32   61 1
  65   33   62 1
  66   34   35 ar
  67   34   63 1
  68   35   36 ar
  69   35   64 1
  70   36   37 ar
  71   36   65 1
  72   37   66 1

#	End of record

