#	Name: ASD01410288
#	Creating user name:	WinNT
#	Creation time:	15. 06. 2019 19:17

#	Modifying user name:	WinNT
#	Modification time:	15. 06. 2019 19:17

#	Program:	/corina/corina34_cracker 3.40 0067  02.08.2006

@<TRIPOS>MOLECULE
ASD01410288
  41   44    0    0    0
SMALL
NO_CHARGES


@<TRIPOS>ATOM
   1 O1             1.3706     1.7789     0.4260 O.3     
   2 C2             2.0358     0.7208    -0.0545 C.2     
   3 C3             1.4589    -0.4100     0.4381 C.2     
   4 C4             0.3507     0.0471     1.2872 C.2     
   5 C5             0.3661     1.3883     1.2254 C.2     
   6 N6             3.0382    -2.1790    -0.2729 N.2     
   7 C7             1.8634    -1.8062     0.1738 C.2     
   8 N8             1.0677    -2.9053     0.3594 N.pl3   
   9 C9             1.8082    -4.0129     0.0023 C.ar    
  10 C10            3.0677    -3.5296    -0.4002 C.ar    
  11 C11            1.5434    -5.3774    -0.0224 C.ar    
  12 C12            2.5029    -6.2552    -0.4363 C.ar    
  13 C13            3.7627    -5.7923    -0.8402 C.ar    
  14 C14            4.0461    -4.4294    -0.8227 C.ar    
  15 C15           -1.2055    -3.6534    -0.1451 C.3     
  16 C16           -2.6481    -3.6529     0.3646 C.3     
  17 C17           -2.7078    -4.3462     1.7273 C.3     
  18 C18           -1.8159    -3.5976     2.7198 C.3     
  19 C19           -0.3733    -3.5981     2.2101 C.3     
  20 C20           -0.3136    -2.9048     0.8474 C.3     
  21 C21            4.7914    -6.7520    -1.2846 C.2     
  22 O22            5.8840    -6.3526    -1.6350 O.2     
  23 O23            4.5192    -8.0715    -1.3018 O.3     
  24 H24            2.8853     0.7579    -0.7204 H       
  25 H25           -0.3367    -0.5700     1.8467 H       
  26 H26           -0.3198     2.0470     1.7373 H       
  27 H27            0.5758    -5.7439     0.2872 H       
  28 H28            2.2900    -7.3139    -0.4525 H       
  29 H29            5.0164    -4.0715    -1.1339 H       
  30 H30           -0.8556    -4.6810    -0.2446 H       
  31 H31           -1.1630    -3.1596    -1.1159 H       
  32 H32           -2.9979    -2.6254     0.4641 H       
  33 H33           -3.2835    -4.1862    -0.3425 H       
  34 H34           -3.7355    -4.3458     2.0904 H       
  35 H35           -2.3579    -5.3737     1.6278 H       
  36 H36           -2.1658    -2.5701     2.8193 H       
  37 H37           -1.8584    -4.0915     3.6906 H       
  38 H38            0.2621    -3.0648     2.9172 H       
  39 H39           -0.0235    -4.6256     2.1106 H       
  40 H40           -0.6635    -1.8773     0.9469 H       
  41 H41            5.2247    -8.6615    -1.6007 H       
@<TRIPOS>BOND
   1    1    2 1
   2    1    5 1
   3    2    3 2
   4    2   24 1
   5    3    4 1
   6    3    7 1
   7    4    5 2
   8    4   25 1
   9    5   26 1
  10    6    7 2
  11    6   10 1
  12    7    8 1
  13    8    9 1
  14    8   20 1
  15    9   10 ar
  16    9   11 ar
  17   10   14 ar
  18   11   12 ar
  19   11   27 1
  20   12   13 ar
  21   12   28 1
  22   13   14 ar
  23   13   21 1
  24   14   29 1
  25   15   16 1
  26   15   20 1
  27   15   30 1
  28   15   31 1
  29   16   17 1
  30   16   32 1
  31   16   33 1
  32   17   18 1
  33   17   34 1
  34   17   35 1
  35   18   19 1
  36   18   36 1
  37   18   37 1
  38   19   20 1
  39   19   38 1
  40   19   39 1
  41   20   40 1
  42   21   22 2
  43   21   23 1
  44   23   41 1

#	End of record

