#	Name: ASD01816601
#	Creating user name:	WinNT
#	Creation time:	15. 06. 2019 19:35

#	Modifying user name:	WinNT
#	Modification time:	15. 06. 2019 19:35

#	Program:	/corina/corina34_cracker 3.40 0067  02.08.2006

@<TRIPOS>MOLECULE
ASD01816601
  72   78    0    0    0
SMALL
NO_CHARGES


@<TRIPOS>ATOM
   1 C1            -0.0341     1.3820    -0.3141 C.ar    
   2 C2            -0.0150    -0.0028    -0.3172 C.ar    
   3 C3            -1.1866    -0.7245    -0.2029 C.ar    
   4 C4            -2.4053    -0.0666    -0.0833 C.ar    
   5 C5            -2.4292     1.3378    -0.0797 C.ar    
   6 C6            -1.2393     2.0612    -0.1895 C.ar    
   7 N7            -3.5816    -0.7892     0.0306 N.pl3   
   8 C8            -4.7868    -0.2095     0.1488 C.2     
   9 C9            -4.9330     1.1552     0.1648 C.2     
  10 C10           -3.7326     2.0146     0.0483 C.2     
  11 C11           -6.0551     2.0820     0.2762 C.2     
  12 N12           -5.5248     3.3230     0.2265 N.am    
  13 N13           -4.1362     3.2523     0.0901 N.2     
  14 C14           -6.2621     4.5116     0.2999 C.ar    
  15 O15           -7.2353     1.7934     0.3912 O.2     
  16 F16            1.1213     2.0729    -0.4269 F       
  17 C17           -6.6009     5.0449     1.5358 C.ar    
  18 C18           -7.3278     6.2178     1.6052 C.ar    
  19 C19           -7.7188     6.8612     0.4456 C.ar    
  20 C20           -7.3838     6.3340    -0.7885 C.ar    
  21 C21           -6.6516     5.1637    -0.8657 C.ar    
  22 N22           -1.2624     3.4570    -0.1856 N.3     
  23 C23           -0.4783     3.9933     0.9350 C.3     
  24 C24           -0.5264     5.4993     0.9064 C.ar    
  25 C25           -1.5261     6.1707     1.5861 C.ar    
  26 C26           -1.5728     7.5509     1.5618 C.ar    
  27 C27           -0.6147     8.2641     0.8540 C.ar    
  28 C28            0.3878     7.5872     0.1726 C.ar    
  29 C29            0.4325     6.2071     0.2053 C.ar    
  30 N30           -0.6597     9.6650     0.8271 N.pl3   
  31 N31           -1.6100    10.4718     1.4662 N.2     
  32 C32            0.2099    10.4770     0.1844 C.2     
  33 C33           -0.1795    11.7541     0.4047 C.2     
  34 C34           -1.3225    11.7229     1.2111 C.2     
  35 F35           -6.3243     4.6485    -2.0709 F       
  36 C36           -3.5072    -2.2522     0.0210 C.3     
  37 C37           -4.0782    -2.8005     1.3303 C.3     
  38 C38           -4.3185    -2.7964    -1.1566 C.3     
  39 C39           -5.7783    -2.3608    -1.0148 C.3     
  40 C40           -6.3492    -2.9091     0.2945 C.3     
  41 C41           -5.5380    -2.3649     1.4721 C.3     
  42 C42           -3.2791    -2.2645     2.4902 C.2     
  43 O43           -3.6013    -2.6138     3.7456 O.3     
  44 O44           -2.3485    -1.5203     2.2901 O.2     
  45 H45            0.9264    -0.5239    -0.4104 H       
  46 H46           -1.1561    -1.8040    -0.2068 H       
  47 H47           -5.6643    -0.8334     0.2333 H       
  48 H48           -6.2968     4.5432     2.4426 H       
  49 H49           -7.5914     6.6326     2.5669 H       
  50 H50           -8.2876     7.7775     0.5035 H       
  51 H51           -7.6908     6.8391    -1.6924 H       
  52 H52           -0.9350     3.8266    -1.0655 H       
  53 H53           -0.8961     3.6342     1.8755 H       
  54 H54            0.5561     3.6611     0.8465 H       
  55 H55           -2.2713     5.6153     2.1362 H       
  56 H56           -2.3540     8.0748     2.0925 H       
  57 H57            1.1342     8.1393    -0.3792 H       
  58 H58            1.2123     5.6799    -0.3243 H       
  59 H59            1.0625    10.1627    -0.3993 H       
  60 H60            0.3076    12.6409     0.0271 H       
  61 H61           -1.8732    12.5831     1.5620 H       
  62 H62           -2.4672    -2.5625    -0.0800 H       
  63 H63           -4.0229    -3.8891     1.3232 H       
  64 H64           -3.9117    -2.4058    -2.0894 H       
  65 H65           -4.2632    -3.8850    -1.1637 H       
  66 H66           -5.8336    -1.2723    -1.0077 H       
  67 H67           -6.3562    -2.7485    -1.8537 H       
  68 H68           -7.3893    -2.5988     0.3955 H       
  69 H69           -6.2939    -3.9977     0.2874 H       
  70 H70           -5.9448    -2.7555     2.4049 H       
  71 H71           -5.5933    -1.2763     1.4792 H       
  72 H72           -3.0598    -2.2447     4.4566 H       
@<TRIPOS>BOND
   1    1    2 ar
   2    1   16 1
   3    1    6 ar
   4    2    3 ar
   5    2   45 1
   6    3    4 ar
   7    3   46 1
   8    4    5 ar
   9    4    7 1
  10    5    6 ar
  11    5   10 1
  12    6   22 1
  13    7    8 1
  14    7   36 1
  15    8    9 2
  16    8   47 1
  17    9   10 1
  18    9   11 1
  19   10   13 2
  20   11   12 am
  21   11   15 2
  22   12   13 1
  23   12   14 1
  24   14   17 ar
  25   14   21 ar
  26   17   18 ar
  27   17   48 1
  28   18   19 ar
  29   18   49 1
  30   19   20 ar
  31   19   50 1
  32   20   21 ar
  33   20   51 1
  34   21   35 1
  35   22   23 1
  36   22   52 1
  37   23   24 1
  38   23   53 1
  39   23   54 1
  40   24   25 ar
  41   24   29 ar
  42   25   26 ar
  43   25   55 1
  44   26   27 ar
  45   26   56 1
  46   27   28 ar
  47   27   30 1
  48   28   29 ar
  49   28   57 1
  50   29   58 1
  51   30   31 1
  52   30   32 1
  53   31   34 2
  54   32   33 2
  55   32   59 1
  56   33   34 1
  57   33   60 1
  58   34   61 1
  59   36   37 1
  60   36   38 1
  61   36   62 1
  62   37   42 1
  63   37   41 1
  64   37   63 1
  65   38   39 1
  66   38   64 1
  67   38   65 1
  68   39   40 1
  69   39   66 1
  70   39   67 1
  71   40   41 1
  72   40   68 1
  73   40   69 1
  74   41   70 1
  75   41   71 1
  76   42   43 1
  77   42   44 2
  78   43   72 1

#	End of record

