#	Name: ASD01152465
#	Creating user name:	WinNT
#	Creation time:	15. 06. 2019 19:05

#	Modifying user name:	WinNT
#	Modification time:	15. 06. 2019 19:05

#	Program:	/corina/corina34_cracker 3.40 0067  02.08.2006

@<TRIPOS>MOLECULE
ASD01152465
  43   45    0    0    0
SMALL
NO_CHARGES


@<TRIPOS>ATOM
   1 C1            -0.0156     1.3020     0.0092 C.2     
   2 N2             0.0021    -0.0041     0.0020 N.2     
   3 N3            -1.1756    -0.7511    -0.0144 N.am    
   4 C4            -2.3794    -0.1975    -0.2358 C.2     
   5 C5            -2.4906     1.2641    -0.6009 C.3     
   6 C6            -1.3163     1.9886     0.0315 C.2     
   7 C7            -2.4460     1.4230    -2.1220 C.3     
   8 O8            -1.4451     3.0893     0.5266 O.2     
   9 C9            -1.1003    -2.1306     0.2079 C.ar    
  10 O10           -3.3813    -0.8742    -0.1425 O.2     
  11 C11           -2.6801     2.8671    -2.4833 C.ar    
  12 C12           -0.2701    -2.9180    -0.5793 C.ar    
  13 C13           -1.8514    -2.7146     1.2202 C.ar    
  14 C14           -1.7744    -4.0761     1.4372 C.ar    
  15 C15           -0.9506    -4.8582     0.6481 C.ar    
  16 C16           -0.1978    -4.2793    -0.3569 C.ar    
  17 C17           -1.6092     3.7343    -2.5929 C.ar    
  18 C18           -3.9653     3.3229    -2.7104 C.ar    
  19 C19           -4.1807     4.6472    -3.0423 C.ar    
  20 C20           -3.1098     5.5169    -3.1467 C.ar    
  21 C21           -1.8233     5.0591    -2.9238 C.ar    
  22 Cl22          -3.3795     7.1804    -3.5635 Cl      
  23 C23            0.5504    -2.2880    -1.6751 C.3     
  24 O24            1.1432     2.0115     0.0019 O.3     
  25 C25            2.3613     1.2644    -0.0137 C.3     
  26 C26            1.8090    -1.7731    -1.1115 C.1     
  27 N27            2.7802    -1.3757    -0.6765 N.1     
  28 H28           -3.4246     1.6712    -0.2138 H       
  29 H29           -1.4695     1.1097    -2.4915 H       
  30 H30           -3.2212     0.8048    -2.5747 H       
  31 H31           -2.4946    -2.1044     1.8370 H       
  32 H32           -2.3578    -4.5307     2.2242 H       
  33 H33           -0.8922    -5.9228     0.8199 H       
  34 H34            0.4476    -4.8922    -0.9686 H       
  35 H35           -0.6049     3.3767    -2.4197 H       
  36 H36           -4.8013     2.6439    -2.6289 H       
  37 H37           -5.1848     5.0030    -3.2204 H       
  38 H38           -0.9870     5.7376    -3.0048 H       
  39 H39            0.7724    -3.0345    -2.4377 H       
  40 H40           -0.0100    -1.4671    -2.1225 H       
  41 H41            2.3938     0.6412    -0.9074 H       
  42 H42            3.2083     1.9504    -0.0181 H       
  43 H43            2.4108     0.6316     0.8725 H       
@<TRIPOS>BOND
   1    1    2 2
   2    1   24 1
   3    1    6 1
   4    2    3 1
   5    3    4 am
   6    3    9 1
   7    4    5 1
   8    4   10 2
   9    5    6 1
  10    5    7 1
  11    5   28 1
  12    6    8 2
  13    7   11 1
  14    7   29 1
  15    7   30 1
  16    9   12 ar
  17    9   13 ar
  18   11   17 ar
  19   11   18 ar
  20   12   16 ar
  21   12   23 1
  22   13   14 ar
  23   13   31 1
  24   14   15 ar
  25   14   32 1
  26   15   16 ar
  27   15   33 1
  28   16   34 1
  29   17   21 ar
  30   17   35 1
  31   18   19 ar
  32   18   36 1
  33   19   20 ar
  34   19   37 1
  35   20   21 ar
  36   20   22 1
  37   21   38 1
  38   23   26 1
  39   23   39 1
  40   23   40 1
  41   24   25 1
  42   25   41 1
  43   25   42 1
  44   25   43 1
  45   26   27 3

#	End of record

