#	Name: ASD02500833
#	Creating user name:	WinNT
#	Creation time:	15. 06. 2019 20:23

#	Modifying user name:	WinNT
#	Modification time:	15. 06. 2019 20:23

#	Program:	/corina/corina34_cracker 3.40 0067  02.08.2006

@<TRIPOS>MOLECULE
ASD02500833
  30   31    0    0    0
SMALL
NO_CHARGES


@<TRIPOS>ATOM
   1 C1            -0.0166     1.3733     0.0096 C.ar    
   2 C2             0.0021    -0.0041     0.0020 C.ar    
   3 C3             1.2217    -0.6870    -0.0133 C.ar    
   4 C4             2.4209     0.0304    -0.0210 C.ar    
   5 C5             2.3955     1.4126    -0.0133 C.ar    
   6 C6             1.1744     2.0873     0.0021 C.ar    
   7 N7             3.5979     2.1370    -0.0205 N.pl3   
   8 C8             4.2694     2.5537    -1.1337 C.2     
   9 C9             5.3748     3.2162    -0.7357 C.2     
  10 C10            5.3875     3.2091     0.6734 C.2     
  11 C11            4.2868     2.5469     1.0847 C.2     
  12 C12            3.8486     2.3144    -2.5609 C.3     
  13 C13            3.8905     2.2951     2.5167 C.3     
  14 O14            1.1504     3.4446     0.0096 O.3     
  15 C15            1.2428    -2.1616    -0.0210 C.2     
  16 O16            2.3036    -2.7540    -0.0343 O.2     
  17 O17            0.0857    -2.8520    -0.0131 O.3     
  18 H18           -0.9599     1.8991     0.0169 H       
  19 H19           -0.9259    -0.5565     0.0083 H       
  20 H20            3.3651    -0.4937    -0.0325 H       
  21 H21            6.1148     3.6689    -1.3790 H       
  22 H22            6.1390     3.6553     1.3079 H       
  23 H23            3.2162     3.1365    -2.8959 H       
  24 H24            4.7330     2.2544    -3.1952 H       
  25 H25            3.2923     1.3791    -2.6236 H       
  26 H26            3.2681     3.1167     2.8713 H       
  27 H27            3.3310     1.3618     2.5801 H       
  28 H28            4.7858     2.2247     3.1344 H       
  29 H29            1.1350     3.8426    -0.8716 H       
  30 H30            0.1501    -3.8169    -0.0186 H       
@<TRIPOS>BOND
   1    1    2 ar
   2    1    6 ar
   3    1   18 1
   4    2    3 ar
   5    2   19 1
   6    3    4 ar
   7    3   15 1
   8    4    5 ar
   9    4   20 1
  10    5    6 ar
  11    5    7 1
  12    6   14 1
  13    7    8 1
  14    7   11 1
  15    8    9 2
  16    8   12 1
  17    9   10 1
  18    9   21 1
  19   10   11 2
  20   10   22 1
  21   11   13 1
  22   12   23 1
  23   12   24 1
  24   12   25 1
  25   13   26 1
  26   13   27 1
  27   13   28 1
  28   14   29 1
  29   15   16 2
  30   15   17 1
  31   17   30 1

#	End of record

