#	Name: ASD08070208
#	Creating user name:	WinNT
#	Creation time:	15. 06. 2019 21:14

#	Modifying user name:	WinNT
#	Modification time:	15. 06. 2019 21:14

#	Program:	/corina/corina34_cracker 3.40 0067  02.08.2006

@<TRIPOS>MOLECULE
ASD08070208
  41   42    0    0    0
SMALL
NO_CHARGES


@<TRIPOS>ATOM
   1 C1            -0.0180     1.4742     0.0101 C.ar    
   2 C2             0.0021    -0.0041     0.0020 C.2     
   3 O3             0.0204    -0.6174     1.0513 O.2     
   4 N4             0.0001    -0.6716    -1.1688 N.am    
   5 C5             0.0199    -2.1365    -1.1769 C.3     
   6 C6            -0.5952    -2.6477    -2.4812 C.3     
   7 C7            -0.5744    -4.1775    -2.4896 C.3     
   8 C8             1.1794     2.1915     0.0026 C.ar    
   9 C9             1.1536     3.5708     0.0097 C.ar    
  10 C10           -0.0555     4.2431     0.0249 C.ar    
  11 C11           -1.2460     3.5382     0.0325 C.ar    
  12 C12            1.4649    -2.6275    -1.0676 C.3     
  13 C13            1.4856    -4.1573    -1.0760 C.3     
  14 C14            0.8705    -4.6686    -2.3803 C.3     
  15 C15           -1.2344     2.1587     0.0196 C.ar    
  16 C16           -2.5320     1.3924     0.0279 C.3     
  17 C17            2.4973     1.4609    -0.0129 C.3     
  18 C18           -0.0760     5.7500     0.0336 C.3     
  19 H19           -0.0145    -0.1822    -2.0061 H       
  20 H20           -0.5565    -2.5123    -0.3315 H       
  21 H21           -1.6246    -2.2978    -2.5590 H       
  22 H22           -0.0188    -2.2718    -3.3265 H       
  23 H23           -1.1508    -4.5534    -1.6442 H       
  24 H24           -1.0126    -4.5417    -3.4188 H       
  25 H25            2.0794     4.1270     0.0039 H       
  26 H26           -2.1865     4.0690     0.0443 H       
  27 H27            2.0413    -2.2517    -1.9129 H       
  28 H28            1.9031    -2.2633    -0.1384 H       
  29 H29            2.5150    -4.5072    -0.9981 H       
  30 H30            0.9092    -4.5332    -0.2306 H       
  31 H31            0.8853    -5.7585    -2.3863 H       
  32 H32            1.4469    -4.2927    -3.2256 H       
  33 H33           -2.8570     1.2171    -0.9976 H       
  34 H34           -2.3863     0.4366     0.5313 H       
  35 H35           -3.2912     1.9692     0.5561 H       
  36 H36            2.8056     1.2895    -1.0443 H       
  37 H37            3.2513     2.0606     0.4969 H       
  38 H38            2.3882     0.5039     0.4974 H       
  39 H39           -0.0905     6.1191    -0.9918 H       
  40 H40           -0.9659     6.0982     0.5578 H       
  41 H41            0.8138     6.1225     0.5413 H       
@<TRIPOS>BOND
   1    1    2 1
   2    1    8 ar
   3    1   15 ar
   4    2    3 2
   5    2    4 am
   6    4    5 1
   7    4   19 1
   8    5    6 1
   9    5   12 1
  10    5   20 1
  11    6    7 1
  12    6   21 1
  13    6   22 1
  14    7   14 1
  15    7   23 1
  16    7   24 1
  17    8    9 ar
  18    8   17 1
  19    9   10 ar
  20    9   25 1
  21   10   11 ar
  22   10   18 1
  23   11   15 ar
  24   11   26 1
  25   12   13 1
  26   12   27 1
  27   12   28 1
  28   13   14 1
  29   13   29 1
  30   13   30 1
  31   14   31 1
  32   14   32 1
  33   15   16 1
  34   16   33 1
  35   16   34 1
  36   16   35 1
  37   17   36 1
  38   17   37 1
  39   17   38 1
  40   18   39 1
  41   18   40 1
  42   18   41 1

#	End of record

