#	Name: ASD05143314
#	Creating user name:	WinNT
#	Creation time:	15. 06. 2019 20:57

#	Modifying user name:	WinNT
#	Modification time:	15. 06. 2019 20:57

#	Program:	/corina/corina34_cracker 3.40 0067  02.08.2006

@<TRIPOS>MOLECULE
ASD05143314
  53   55    0    0    0
SMALL
NO_CHARGES


@<TRIPOS>ATOM
   1 C1            -0.2706     1.4647     0.1075 C.2     
   2 N2            -0.0191     0.2153    -0.2300 N.2     
   3 S3            -1.5327    -0.5522    -0.3148 S.3     
   4 C4            -2.4304     0.8548     0.1105 C.2     
   5 N5            -1.5333     1.7989     0.2910 N.2     
   6 N6            -3.8024     0.9664     0.2399 N.pl3   
   7 C7            -4.3655     2.1522     0.7265 C.ar    
   8 C8            -5.6657     2.4969     0.3810 C.ar    
   9 C9            -6.2205     3.6665     0.8618 C.ar    
  10 C10           -5.4793     4.4973     1.6892 C.ar    
  11 C11           -4.1804     4.1540     2.0345 C.ar    
  12 C12           -3.6262     2.9817     1.5596 C.ar    
  13 C13            1.2097    -0.3481    -0.4642 C.ar    
  14 C14            2.0494     0.1834    -1.4427 C.ar    
  15 C15            1.6296    -1.4564     0.2820 C.ar    
  16 C16            2.8709    -2.0180     0.0385 C.ar    
  17 C17            3.6934    -1.4858    -0.9382 C.ar    
  18 C18            3.2846    -0.3878    -1.6739 C.ar    
  19 C19            0.8206     2.4511     0.2797 C.ar    
  20 C20            0.6049     3.7938    -0.0314 C.ar    
  21 C21            2.0649     2.0408     0.7589 C.ar    
  22 C22            3.0784     2.9617     0.9179 C.ar    
  23 C23            2.8618     4.2965     0.6023 C.ar    
  24 C24            1.6229     4.7094     0.1301 C.ar    
  25 O25            3.8626     5.2015     0.7611 O.3     
  26 C26            3.5714     6.5577     0.4173 C.3     
  27 O27            0.8213    -1.9782     1.2419 O.3     
  28 C28            1.3162    -3.1086     1.9627 C.3     
  29 O29           -6.0263     5.6491     2.1619 O.3     
  30 C30           -5.2064     6.4568     3.0089 C.3     
  31 H31           -4.3749     0.2231    -0.0065 H       
  32 H32           -6.2426     1.8505    -0.2638 H       
  33 H33           -7.2316     3.9347     0.5932 H       
  34 H34           -3.6039     4.8016     2.6785 H       
  35 H35           -2.6150     2.7144     1.8287 H       
  36 H36            1.7336     1.0405    -2.0190 H       
  37 H37            3.1980    -2.8728     0.6120 H       
  38 H38            4.6615    -1.9269    -1.1242 H       
  39 H39            3.9327     0.0214    -2.4348 H       
  40 H40           -0.3584     4.1156    -0.3986 H       
  41 H41            2.2339     1.0029     1.0052 H       
  42 H42            4.0420     2.6447     1.2888 H       
  43 H43            1.4579     5.7483    -0.1144 H       
  44 H44            4.4537     7.1739     0.5907 H       
  45 H45            3.2901     6.6136    -0.6343 H       
  46 H46            2.7484     6.9200     1.0333 H       
  47 H47            1.5110    -3.9256     1.2679 H       
  48 H48            2.2403    -2.8377     2.4733 H       
  49 H49            0.5747    -3.4246     2.6965 H       
  50 H50           -5.7622     7.3431     3.3147 H       
  51 H51           -4.9210     5.8843     3.8915 H       
  52 H52           -4.3105     6.7590     2.4665 H       
  53 Br53           9.6615    12.3431     8.8915 Br      
@<TRIPOS>BOND
   1    1    2 2
   2    1   19 1
   3    1    5 1
   4    2    3 1
   5    2   13 1
   6    3    4 1
   7    4    5 2
   8    4    6 1
   9    6    7 1
  10    6   31 1
  11    7    8 ar
  12    7   12 ar
  13    8    9 ar
  14    8   32 1
  15    9   10 ar
  16    9   33 1
  17   10   11 ar
  18   10   29 1
  19   11   12 ar
  20   11   34 1
  21   12   35 1
  22   13   14 ar
  23   13   15 ar
  24   14   18 ar
  25   14   36 1
  26   15   16 ar
  27   15   27 1
  28   16   17 ar
  29   16   37 1
  30   17   18 ar
  31   17   38 1
  32   18   39 1
  33   19   20 ar
  34   19   21 ar
  35   20   24 ar
  36   20   40 1
  37   21   22 ar
  38   21   41 1
  39   22   23 ar
  40   22   42 1
  41   23   24 ar
  42   23   25 1
  43   24   43 1
  44   25   26 1
  45   26   44 1
  46   26   45 1
  47   26   46 1
  48   27   28 1
  49   28   47 1
  50   28   48 1
  51   28   49 1
  52   29   30 1
  53   30   50 1
  54   30   51 1
  55   30   52 1

#	End of record

