#	Name: ASD03331270
#	Creating user name:	WinNT
#	Creation time:	15. 06. 2019 20:38

#	Modifying user name:	WinNT
#	Modification time:	15. 06. 2019 20:38

#	Program:	/corina/corina34_cracker 3.40 0067  02.08.2006

@<TRIPOS>MOLECULE
ASD03331270
  45   48    0    0    0
SMALL
NO_CHARGES


@<TRIPOS>ATOM
   1 N1            -0.0462     1.4947     0.5665 N.am    
   2 C2             0.0011     0.1483     1.1567 C.3     
   3 C3             0.5973    -0.8149     0.1248 C.3     
   4 N4             1.8906    -0.2934    -0.3372 N.3     
   5 C5             1.7306     0.9942    -1.0259 C.3     
   6 C6             1.1809     2.0316    -0.0411 C.3     
   7 C7            -1.1853     2.2150     0.5771 C.2     
   8 O8            -2.2148     1.7184     0.9916 O.2     
   9 N9            -1.1831     3.4859     0.1284 N.am    
  10 C10           -2.3853     4.1964     0.0329 C.ar    
  11 C11           -3.5689     3.5399    -0.2764 C.ar    
  12 N12           -4.7030     4.2057    -0.3677 N.ar    
  13 C13           -4.7617     5.5081    -0.1710 C.ar    
  14 C14           -3.6254     6.2314     0.1412 C.ar    
  15 C15           -2.4127     5.5714     0.2526 C.ar    
  16 C16            2.5748    -1.2687    -1.1966 C.3     
  17 C17            3.7680    -0.6162    -1.8458 C.ar    
  18 C18            4.9992    -0.6512    -1.2188 C.ar    
  19 C19            6.0970    -0.0535    -1.8102 C.ar    
  20 C20            5.9648     0.5823    -3.0336 C.ar    
  21 C21            4.7239     0.6172    -3.6658 C.ar    
  22 C22            3.6300     0.0115    -3.0702 C.ar    
  23 O23            6.8714     1.2375    -3.8158 O.3     
  24 C24            6.2666     1.3184    -5.1200 C.3     
  25 O25            4.8536     1.2943    -4.8439 O.3     
  26 H26            0.6265     0.1617     2.0494 H       
  27 H27           -1.0073    -0.1728     1.4175 H       
  28 H28            0.7422    -1.7937     0.5820 H       
  29 H29           -0.0819    -0.9059    -0.7228 H       
  30 H30            2.6974     1.3275    -1.4032 H       
  31 H31            1.0356     0.8780    -1.8575 H       
  32 H32            0.9524     2.9556    -0.5723 H       
  33 H33            1.9197     2.2260     0.7364 H       
  34 H34           -0.3485     3.9081    -0.1284 H       
  35 H35           -3.5604     2.4731    -0.4444 H       
  36 H36           -5.7105     6.0172    -0.2553 H       
  37 H37           -3.6833     7.2981     0.3002 H       
  38 H38           -1.5101     6.1104     0.4997 H       
  39 H39            2.9062    -2.1144    -0.5941 H       
  40 H40            1.8880    -1.6186    -1.9673 H       
  41 H41            5.1040    -1.1462    -0.2646 H       
  42 H42            7.0578    -0.0821    -1.3178 H       
  43 H43            2.6669     0.0367    -3.5583 H       
  44 H44            6.5445     2.2494    -5.6140 H       
  45 H45            6.5525     0.4606    -5.7286 H       
@<TRIPOS>BOND
   1    1    2 1
   2    1    6 1
   3    1    7 am
   4    2    3 1
   5    2   26 1
   6    2   27 1
   7    3    4 1
   8    3   28 1
   9    3   29 1
  10    4    5 1
  11    4   16 1
  12    5    6 1
  13    5   30 1
  14    5   31 1
  15    6   32 1
  16    6   33 1
  17    7    8 2
  18    7    9 am
  19    9   10 1
  20    9   34 1
  21   10   11 ar
  22   10   15 ar
  23   11   12 ar
  24   11   35 1
  25   12   13 ar
  26   13   14 ar
  27   13   36 1
  28   14   15 ar
  29   14   37 1
  30   15   38 1
  31   16   17 1
  32   16   39 1
  33   16   40 1
  34   17   18 ar
  35   17   22 ar
  36   18   19 ar
  37   18   41 1
  38   19   20 ar
  39   19   42 1
  40   20   21 ar
  41   20   23 1
  42   21   22 ar
  43   21   25 1
  44   22   43 1
  45   23   24 1
  46   24   25 1
  47   24   44 1
  48   24   45 1

#	End of record

