#	Name: ASD01811339
#	Creating user name:	WinNT
#	Creation time:	15. 06. 2019 19:26

#	Modifying user name:	WinNT
#	Modification time:	15. 06. 2019 19:26

#	Program:	/corina/corina34_cracker 3.40 0067  02.08.2006

@<TRIPOS>MOLECULE
ASD01811339
  62   65    0    0    0
SMALL
NO_CHARGES


@<TRIPOS>ATOM
   1 N1             0.2098     1.8204     1.4889 N.am    
   2 C2             0.1836     0.5000     1.7575 C.2     
   3 O3             1.0263    -0.2345     1.2791 O.2     
   4 N4            -0.7766    -0.0063     2.5563 N.am    
   5 O5            -0.5876    -2.7472     4.8531 O.3     
   6 C6             0.0978    -1.7748     4.0554 C.3     
   7 C7            -0.8050    -1.4417     2.8482 C.3     
   8 C8            -2.2074    -1.8747     3.3560 C.3     
   9 C9            -1.8375    -3.0949     4.2365 C.3     
  10 C10            1.2546     2.3596     0.7292 C.ar    
  11 C11            1.0297     3.4750    -0.0689 C.ar    
  12 C12            2.0579     4.0109    -0.8212 C.ar    
  13 C13            3.3149     3.4419    -0.7850 C.ar    
  14 C14            3.5510     2.3219     0.0137 C.ar    
  15 C15            2.5147     1.7845     0.7773 C.ar    
  16 C16           -0.3399     4.1019    -0.1145 C.3     
  17 C17            4.8965     1.7100     0.0540 C.2     
  18 O18            5.0138     0.5085     0.1957 O.2     
  19 N19            5.9929     2.4846    -0.0662 N.am    
  20 C20            7.3304     1.8816    -0.1448 C.3     
  21 C21            8.2206     2.5147     0.9292 C.3     
  22 C22            8.2065     4.0363     0.7660 C.3     
  23 C23            6.7797     4.5578     0.9521 C.3     
  24 C24            5.8728     3.9476    -0.1274 C.3     
  25 C25            9.1080     4.6605     1.7997 C.ar    
  26 C26            9.2500     6.0352     1.8400 C.ar    
  27 C27           10.0802     6.6017     2.7934 C.ar    
  28 C28           10.7428     5.7574     3.6789 C.ar    
  29 C29           10.5495     4.3877     3.5760 C.ar    
  30 N30            9.7465     3.8888     2.6570 N.ar    
  31 O31           11.5679     6.2674     4.6309 O.3     
  32 C32           12.2103     5.3333     5.5008 C.3     
  33 F33            8.6623     4.3720    -0.5134 F       
  34 H34           -0.4975     2.3965     1.8187 H       
  35 H35           -1.4488     0.5796     2.9379 H       
  36 H36            0.2768    -0.8743     4.6429 H       
  37 H37            1.0456    -2.1845     3.7064 H       
  38 H38           -0.5106    -2.0198     1.9724 H       
  39 H39           -2.6704    -1.0872     3.9505 H       
  40 H40           -2.8515    -2.1691     2.5274 H       
  41 H41           -1.7200    -3.9853     3.6190 H       
  42 H42           -2.6016    -3.2586     4.9964 H       
  43 H43            1.8770     4.8775    -1.4398 H       
  44 H44            4.1155     3.8631    -1.3749 H       
  45 H45            2.6925     0.9206     1.4006 H       
  46 H46           -0.4157     4.8659     0.6593 H       
  47 H47           -0.4985     4.5577    -1.0918 H       
  48 H48           -1.0961     3.3357     0.0561 H       
  49 H49            7.2578     0.8077     0.0271 H       
  50 H50            7.7579     2.0679    -1.1301 H       
  51 H51            7.8422     2.2513     1.9169 H       
  52 H52            9.2406     2.1465     0.8198 H       
  53 H53            6.4150     4.2751     1.9395 H       
  54 H54            6.7743     5.6438     0.8588 H       
  55 H55            6.1839     4.2990    -1.1112 H       
  56 H56            4.8382     4.2373     0.0561 H       
  57 H57            8.7203     6.6600     1.1361 H       
  58 H58           10.2103     7.6725     2.8478 H       
  59 H59           11.0589     3.7234     4.2583 H       
  60 H60           11.4558     4.7628     6.0423 H       
  61 H61           12.8268     4.6537     4.9125 H       
  62 H62           12.8385     5.8709     6.2111 H       
@<TRIPOS>BOND
   1    1    2 am
   2    1   10 1
   3    1   34 1
   4    2    3 2
   5    2    4 am
   6    4    7 1
   7    4   35 1
   8    5    6 1
   9    5    9 1
  10    6    7 1
  11    6   36 1
  12    6   37 1
  13    7    8 1
  14    7   38 1
  15    8    9 1
  16    8   39 1
  17    8   40 1
  18    9   41 1
  19    9   42 1
  20   10   11 ar
  21   10   15 ar
  22   11   12 ar
  23   11   16 1
  24   12   13 ar
  25   12   43 1
  26   13   14 ar
  27   13   44 1
  28   14   15 ar
  29   14   17 1
  30   15   45 1
  31   16   46 1
  32   16   47 1
  33   16   48 1
  34   17   18 2
  35   17   19 am
  36   19   20 1
  37   19   24 1
  38   20   21 1
  39   20   49 1
  40   20   50 1
  41   21   22 1
  42   21   51 1
  43   21   52 1
  44   22   23 1
  45   22   25 1
  46   22   33 1
  47   23   24 1
  48   23   53 1
  49   23   54 1
  50   24   55 1
  51   24   56 1
  52   25   26 ar
  53   25   30 ar
  54   26   27 ar
  55   26   57 1
  56   27   28 ar
  57   27   58 1
  58   28   29 ar
  59   28   31 1
  60   29   30 ar
  61   29   59 1
  62   31   32 1
  63   32   60 1
  64   32   61 1
  65   32   62 1

#	End of record

