#	Name: ASD00431295
#	Creating user name:	WinNT
#	Creation time:	15. 06. 2019 18:35

#	Modifying user name:	WinNT
#	Modification time:	15. 06. 2019 18:35

#	Program:	/corina/corina34_cracker 3.40 0067  02.08.2006

@<TRIPOS>MOLECULE
ASD00431295
  28   29    0    0    0
SMALL
NO_CHARGES


@<TRIPOS>ATOM
   1 S1             0.3662     4.6062     0.0847 S.3     
   2 C2             0.8554     6.2977     0.1899 C.2     
   3 N3             2.1503     6.3316     0.2233 N.2     
   4 N4             2.7453     5.2191     0.1764 N.2     
   5 C5             2.0168     4.1482     0.0996 C.2     
   6 O6             2.4845     2.8769     0.0413 O.3     
   7 C7             3.8257     2.6956    -0.0889 C.ar    
   8 C8             4.6541     3.7848    -0.3170 C.ar    
   9 C9             6.0165     3.6005    -0.4488 C.ar    
  10 C10            6.5566     2.3265    -0.3531 C.ar    
  11 C11            5.7285     1.2374    -0.1251 C.ar    
  12 C12            4.3665     1.4221     0.0119 C.ar    
  13 O13            7.8979     2.1452    -0.4833 O.3     
  14 C14            8.3973     0.8230    -0.2726 C.3     
  15 C15            9.7232     0.6539    -1.0170 C.3     
  16 C16            8.6197     0.5943     1.2238 C.3     
  17 Br17          -0.3015     7.7926     0.2437 Br      
  18 H18            4.2336     4.7768    -0.3918 H       
  19 H19            6.6614     4.4484    -0.6266 H       
  20 H20            6.1490     0.2454    -0.0510 H       
  21 H21            3.7222     0.5746     0.1935 H       
  22 H22            7.6751     0.0977    -0.6475 H       
  23 H23           10.4454     1.3791    -0.6420 H       
  24 H24           10.1041    -0.3547    -0.8562 H       
  25 H25            9.5648     0.8168    -2.0830 H       
  26 H26            7.6751     0.7147     1.7541 H       
  27 H27            9.0006    -0.4142     1.3846 H       
  28 H28            9.3419     1.3195     1.5988 H       
@<TRIPOS>BOND
   1    1    2 1
   2    1    5 1
   3    2    3 2
   4    2   17 1
   5    3    4 1
   6    4    5 2
   7    5    6 1
   8    6    7 1
   9    7    8 ar
  10    7   12 ar
  11    8    9 ar
  12    8   18 1
  13    9   10 ar
  14    9   19 1
  15   10   11 ar
  16   10   13 1
  17   11   12 ar
  18   11   20 1
  19   12   21 1
  20   13   14 1
  21   14   15 1
  22   14   16 1
  23   14   22 1
  24   15   23 1
  25   15   24 1
  26   15   25 1
  27   16   26 1
  28   16   27 1
  29   16   28 1

#	End of record

