#	Name: ASD03731261
#	Creating user name:	WinNT
#	Creation time:	15. 06. 2019 20:45

#	Modifying user name:	WinNT
#	Modification time:	15. 06. 2019 20:45

#	Program:	/corina/corina34_cracker 3.40 0067  02.08.2006

@<TRIPOS>MOLECULE
ASD03731261
  57   62    0    0    0
SMALL
NO_CHARGES


@<TRIPOS>ATOM
   1 N1            -0.0162     1.3436     0.0094 N.am    
   2 C2            -0.1342     0.0013     0.0384 C.2     
   3 O3             0.8572    -0.6981    -0.0417 O.2     
   4 N4            -1.3512    -0.5658     0.1561 N.am    
   5 C5            -1.4794    -2.0249     0.1876 C.3     
   6 C6            -2.9552    -2.4042     0.3262 C.3     
   7 O7             1.5017    -7.7447     2.1446 O.3     
   8 C8             1.8038    -9.1327     2.3795 C.3     
   9 O9             0.6148    -9.6391     3.0141 O.3     
  10 C10           -0.4039    -8.8466     2.5679 C.ar    
  11 C11            0.1421    -7.6814     2.0343 C.ar    
  12 C12           -1.7752    -9.0286     2.5730 C.ar    
  13 C13           -2.6179    -8.0529     2.0491 C.ar    
  14 C14           -2.0612    -6.8896     1.5264 C.ar    
  15 C15           -0.6940    -6.7078     1.5142 C.ar    
  16 O16           -3.9776    -8.0412     1.9421 O.3     
  17 C17           -3.2108    -6.0310     1.0711 C.3     
  18 C18           -4.4266    -6.6875     1.7392 C.3     
  19 N19           -3.0835    -3.8632     0.3577 N.am    
  20 C20           -3.0491    -4.5974     1.4876 C.2     
  21 C21           -3.3427    -5.9987    -0.4227 C.ar    
  22 C22           -3.5150    -6.9697    -1.3838 C.ar    
  23 C23           -3.6054    -6.6156    -2.7182 C.ar    
  24 C24           -3.5215    -5.2846    -3.0843 C.ar    
  25 C25           -3.3480    -4.3084    -2.1254 C.ar    
  26 C26           -3.2564    -4.6556    -0.7798 C.ar    
  27 O27           -2.9145    -4.1816     2.6190 O.2     
  28 C28            1.2535     1.9352     0.0100 C.ar    
  29 C29            1.4687     3.1243    -0.6785 C.ar    
  30 C30            2.7235     3.7049    -0.6753 C.ar    
  31 C31            3.7629     3.1040     0.0113 C.ar    
  32 C32            3.5512     1.9218     0.6959 C.ar    
  33 C33            2.2981     1.3392     0.7021 C.ar    
  34 C34            4.6873     1.2706     1.4417 C.3     
  35 F35            0.4534     3.7109    -1.3495 F       
  36 H36           -0.8105     1.8998    -0.0158 H       
  37 H37           -2.1421    -0.0079     0.2200 H       
  38 H38           -1.0816    -2.4446    -0.7363 H       
  39 H39           -0.9214    -2.4204     1.0362 H       
  40 H40           -3.3530    -1.9845     1.2501 H       
  41 H41           -3.5132    -2.0086    -0.5225 H       
  42 H42            1.9848    -9.6499     1.4373 H       
  43 H43            2.6632    -9.2307     3.0426 H       
  44 H44           -2.1946    -9.9339     2.9863 H       
  45 H45           -0.2746    -5.8037     1.0984 H       
  46 H46           -5.2925    -6.6619     1.0777 H       
  47 H47           -4.6513    -6.2072     2.6915 H       
  48 H48           -3.5800    -8.0085    -1.0957 H       
  49 H49           -3.7414    -7.3768    -3.4721 H       
  50 H50           -3.5920    -5.0082    -4.1259 H       
  51 H51           -3.2829    -3.2711    -2.4191 H       
  52 H52            2.8923     4.6282    -1.2098 H       
  53 H53            4.7423     3.5592     0.0125 H       
  54 H54            2.1330     0.4183     1.2417 H       
  55 H55            4.7130     1.6462     2.4646 H       
  56 H56            4.5415     0.1905     1.4548 H       
  57 H57            5.6291     1.5040     0.9451 H       
@<TRIPOS>BOND
   1    1    2 am
   2    1   28 1
   3    1   36 1
   4    2    3 2
   5    2    4 am
   6    4    5 1
   7    4   37 1
   8    5    6 1
   9    5   38 1
  10    5   39 1
  11    6   19 1
  12    6   40 1
  13    6   41 1
  14    7    8 1
  15    7   11 1
  16    8    9 1
  17    8   42 1
  18    8   43 1
  19    9   10 1
  20   10   11 ar
  21   10   12 ar
  22   11   15 ar
  23   12   13 ar
  24   12   44 1
  25   13   14 ar
  26   13   16 1
  27   14   15 ar
  28   14   17 1
  29   15   45 1
  30   16   18 1
  31   17   18 1
  32   17   20 1
  33   17   21 1
  34   18   46 1
  35   18   47 1
  36   19   20 am
  37   19   26 1
  38   20   27 2
  39   21   22 ar
  40   21   26 ar
  41   22   23 ar
  42   22   48 1
  43   23   24 ar
  44   23   49 1
  45   24   25 ar
  46   24   50 1
  47   25   26 ar
  48   25   51 1
  49   28   29 ar
  50   28   33 ar
  51   29   30 ar
  52   29   35 1
  53   30   31 ar
  54   30   52 1
  55   31   32 ar
  56   31   53 1
  57   32   33 ar
  58   32   34 1
  59   33   54 1
  60   34   55 1
  61   34   56 1
  62   34   57 1

#	End of record

