#	Name: ASD01881299
#	Creating user name:	WinNT
#	Creation time:	15. 06. 2019 19:42

#	Modifying user name:	WinNT
#	Modification time:	15. 06. 2019 19:42

#	Program:	/corina/corina34_cracker 3.40 0067  02.08.2006

@<TRIPOS>MOLECULE
ASD01881299
  59   62    0    0    0
SMALL
NO_CHARGES


@<TRIPOS>ATOM
   1 C1            -0.0162     1.3398     0.0094 C.2     
   2 N2             0.0021    -0.0041     0.0020 N.am    
   3 C3             1.3975    -0.4574    -0.0137 C.3     
   4 C4             2.2453     0.7903    -0.0151 C.ar    
   5 C5             3.6007     1.0050    -0.0273 C.ar    
   6 C6             4.0976     2.3066    -0.0255 C.ar    
   7 C7             3.2198     3.3874    -0.0113 C.ar    
   8 C8             1.8605     3.1761     0.0009 C.ar    
   9 C9             1.3571     1.8711    -0.0009 C.ar    
  10 O10           -1.0238     2.0204     0.0181 O.2     
  11 N11            5.4706     2.5264    -0.0373 N.pl3   
  12 C12            5.9934     3.8949    -0.0354 C.3     
  13 C13            8.2151     4.0402     1.1151 C.ar    
  14 C14            7.4998     3.8572    -0.0498 C.ar    
  15 C15            8.1902     3.6363    -1.2412 C.ar    
  16 C16            9.5844     3.6100    -1.2017 C.ar    
  17 C17           10.2241     3.8019     0.0044 C.ar    
  18 N18            9.5345     4.0082     1.1110 N.ar    
  19 O19            6.1786     3.9681    -5.0718 O.3     
  20 C20            6.4986     4.8939    -4.1214 C.3     
  21 C21            7.7958     4.5114    -3.3758 C.3     
  22 N22            7.5061     3.4466    -2.4382 N.3     
  23 C23            7.7413     2.0865    -2.9739 C.3     
  24 C24            7.2468     1.9402    -4.4183 C.3     
  25 C25            5.9181     2.6272    -4.6269 C.3     
  26 C26           -1.1772    -0.8732     0.0086 C.3     
  27 C27           -1.6012    -1.1686    -1.4315 C.3     
  28 C28           -2.8328    -2.0763    -1.4246 C.3     
  29 C29           -3.2567    -2.3716    -2.8648 C.3     
  30 H30            1.6082    -1.0527     0.8747 H       
  31 H31            1.5912    -1.0431    -0.9124 H       
  32 H32            4.2810     0.1663    -0.0380 H       
  33 H33            3.6076     4.3954    -0.0095 H       
  34 H34            1.1827     4.0169     0.0123 H       
  35 H35            6.0822     1.7735    -0.0469 H       
  36 H36            5.6346     4.4221    -0.9194 H       
  37 H37            5.6514     4.4132     0.8604 H       
  38 H38            7.6889     4.2163     2.0416 H       
  39 H39           10.1546     3.4414    -2.1033 H       
  40 H40           11.3032     3.7828     0.0445 H       
  41 H41            6.6351     5.8636    -4.6000 H       
  42 H42            5.6819     4.9640    -3.4029 H       
  43 H43            8.5423     4.1719    -4.0938 H       
  44 H44            8.1754     5.3791    -2.8362 H       
  45 H45            8.8098     1.8736    -2.9425 H       
  46 H46            7.2196     1.3639    -2.3464 H       
  47 H47            7.9831     2.3783    -5.0921 H       
  48 H48            7.1396     0.8808    -4.6516 H       
  49 H49            5.3640     2.6512    -3.6885 H       
  50 H50            5.3417     2.0935    -5.3826 H       
  51 H51           -0.9369    -1.8078     0.5155 H       
  52 H52           -1.9929    -0.3750     0.5326 H       
  53 H53           -1.8414    -0.2340    -1.9384 H       
  54 H54           -0.7855    -1.6668    -1.9555 H       
  55 H55           -2.5925    -3.0109    -0.9177 H       
  56 H56           -3.6484    -1.5780    -0.9007 H       
  57 H57           -3.4970    -1.4371    -3.3717 H       
  58 H58           -2.4410    -2.8699    -3.3887 H       
  59 H59           -4.1341    -3.0183    -2.8598 H       
@<TRIPOS>BOND
   1    1    2 am
   2    1    9 1
   3    1   10 2
   4    2    3 1
   5    2   26 1
   6    3    4 1
   7    3   30 1
   8    3   31 1
   9    4    5 ar
  10    4    9 ar
  11    5    6 ar
  12    5   32 1
  13    6    7 ar
  14    6   11 1
  15    7    8 ar
  16    7   33 1
  17    8    9 ar
  18    8   34 1
  19   11   12 1
  20   11   35 1
  21   12   14 1
  22   12   36 1
  23   12   37 1
  24   13   14 ar
  25   13   18 ar
  26   13   38 1
  27   14   15 ar
  28   15   16 ar
  29   15   22 1
  30   16   17 ar
  31   16   39 1
  32   17   18 ar
  33   17   40 1
  34   19   20 1
  35   19   25 1
  36   20   21 1
  37   20   41 1
  38   20   42 1
  39   21   22 1
  40   21   43 1
  41   21   44 1
  42   22   23 1
  43   23   24 1
  44   23   45 1
  45   23   46 1
  46   24   25 1
  47   24   47 1
  48   24   48 1
  49   25   49 1
  50   25   50 1
  51   26   27 1
  52   26   51 1
  53   26   52 1
  54   27   28 1
  55   27   53 1
  56   27   54 1
  57   28   29 1
  58   28   55 1
  59   28   56 1
  60   29   57 1
  61   29   58 1
  62   29   59 1

#	End of record

