#	Name: ASD01882159
#	Creating user name:	WinNT
#	Creation time:	15. 06. 2019 19:44

#	Modifying user name:	WinNT
#	Modification time:	15. 06. 2019 19:44

#	Program:	/corina/corina34_cracker 3.40 0067  02.08.2006

@<TRIPOS>MOLECULE
ASD01882159
  23   24    0    0    0
SMALL
NO_CHARGES


@<TRIPOS>ATOM
   1 C1            -0.0178     1.4612     0.0101 C.2     
   2 C2             0.0021    -0.0041     0.0020 C.2     
   3 C3             1.2425    -0.6474    -0.0133 C.2     
   4 C4             2.4144     0.1275    -0.0203 C.2     
   5 C5             2.3579     1.4737    -0.0125 C.2     
   6 N6             1.1707     2.1443     0.0024 N.pl3   
   7 N7            -1.0009     2.3425     0.0295 N.2     
   8 C8            -0.4847     3.5771     0.0288 C.2     
   9 C9             0.8604     3.4813     0.0130 C.2     
  10 C10           -1.2165    -0.7562     0.0101 C.1     
  11 N11           -2.1831    -1.3529     0.0165 N.1     
  12 C12            1.8392     4.6271     0.0100 C.3     
  13 C13            2.0888     5.0884     1.4473 C.3     
  14 F14            2.6148     4.0278     2.1927 F       
  15 F15            2.9974     6.1522     1.4445 F       
  16 F16            0.8825     5.5071     2.0188 F       
  17 O17            1.3141    -2.0000    -0.0208 O.3     
  18 H18            3.3761    -0.3638    -0.0318 H       
  19 H19            3.2790     2.0376    -0.0179 H       
  20 H20           -1.0508     4.4968     0.0423 H       
  21 H21            2.7791     4.3010    -0.4353 H       
  22 H22            1.4294     5.4535    -0.5708 H       
  23 H23            2.2170    -2.3460    -0.0313 H       
@<TRIPOS>BOND
   1    1    2 1
   2    1    6 1
   3    1    7 2
   4    2    3 2
   5    2   10 1
   6    3    4 1
   7    3   17 1
   8    4    5 2
   9    4   18 1
  10    5    6 1
  11    5   19 1
  12    6    9 1
  13    7    8 1
  14    8    9 2
  15    8   20 1
  16    9   12 1
  17   10   11 3
  18   12   13 1
  19   12   21 1
  20   12   22 1
  21   13   14 1
  22   13   15 1
  23   13   16 1
  24   17   23 1

#	End of record

