#	Name: ASD01940504
#	Creating user name:	WinNT
#	Creation time:	15. 06. 2019 20:12

#	Modifying user name:	WinNT
#	Modification time:	15. 06. 2019 20:12

#	Program:	/corina/corina34_cracker 3.40 0067  02.08.2006

@<TRIPOS>MOLECULE
ASD01940504
  33   35    0    0    0
SMALL
NO_CHARGES


@<TRIPOS>ATOM
   1 N1            -0.0251     1.3836    -0.0184 N.pl3   
   2 N2            -1.7316    -2.5390     1.8054 N.pl3   
   3 N3            -2.6695    -1.4996     1.8237 N.2     
   4 C4            -2.1466    -0.4265     1.3048 C.2     
   5 C5            -0.8176    -0.7138     0.9138 C.ar    
   6 C6             0.2011     0.0486     0.3120 C.ar    
   7 C7             1.4257    -0.5332     0.0503 C.ar    
   8 C8             1.6568    -1.8670     0.3780 C.ar    
   9 C9             0.6659    -2.6272     0.9686 C.ar    
  10 C10           -0.5765    -2.0604     1.2413 C.ar    
  11 N11            2.4993     0.2655    -0.5830 N.pl3   
  12 O12            3.2357     0.9497     0.1048 O.2     
  13 O13            2.6462     0.2384    -1.7918 O.2     
  14 O14            2.8673    -2.4255     0.1142 O.3     
  15 C15            3.0411    -3.7974     0.4744 C.3     
  16 C16           -0.4342     1.7244    -1.3119 C.ar    
  17 C17           -0.7702     3.0406    -1.6130 C.ar    
  18 C18           -1.1740     3.3731    -2.8926 C.ar    
  19 C19           -1.2443     2.3982    -3.8722 C.ar    
  20 C20           -0.9113     1.0893    -3.5748 C.ar    
  21 C21           -0.5005     0.7512    -2.2996 C.ar    
  22 I22           -1.8574     2.9061    -5.8100 I       
  23 F23           -0.7022     3.9920    -0.6563 F       
  24 H24            0.0972     2.0761     0.6498 H       
  25 H25           -1.8727    -3.4394     2.1375 H       
  26 H26           -2.6448     0.5249     1.1910 H       
  27 H27            0.8546    -3.6608     1.2184 H       
  28 H28            2.8931    -3.9128     1.5481 H       
  29 H29            2.3139    -4.4084    -0.0604 H       
  30 H30            4.0490    -4.1176     0.2101 H       
  31 H31           -1.4350     4.3943    -3.1278 H       
  32 H32           -0.9681     0.3310    -4.3418 H       
  33 H33           -0.2357    -0.2704    -2.0702 H       
@<TRIPOS>BOND
   1    1    6 1
   2    1   16 1
   3    1   24 1
   4    2    3 1
   5    2   10 1
   6    2   25 1
   7    3    4 2
   8    4    5 1
   9    4   26 1
  10    5    6 ar
  11    5   10 ar
  12    6    7 ar
  13    7    8 ar
  14    7   11 1
  15    8    9 ar
  16    8   14 1
  17    9   10 ar
  18    9   27 1
  19   11   12 2
  20   11   13 2
  21   14   15 1
  22   15   28 1
  23   15   29 1
  24   15   30 1
  25   16   17 ar
  26   16   21 ar
  27   17   18 ar
  28   17   23 1
  29   18   19 ar
  30   18   31 1
  31   19   20 ar
  32   19   22 1
  33   20   21 ar
  34   20   32 1
  35   21   33 1

#	End of record

