#	Name: ASD01911922
#	Creating user name:	WinNT
#	Creation time:	15. 06. 2019 19:58

#	Modifying user name:	WinNT
#	Modification time:	15. 06. 2019 19:58

#	Program:	/corina/corina34_cracker 3.40 0067  02.08.2006

@<TRIPOS>MOLECULE
ASD01911922
  46   48    0    0    0
SMALL
NO_CHARGES


@<TRIPOS>ATOM
   1 C1             2.1230    -5.2282     0.5329 C.ar    
   2 C2             2.2299    -4.8667    -0.8063 C.ar    
   3 C3             3.4032    -5.1843    -1.4831 C.ar    
   4 N4             4.3684    -5.8141    -0.8339 N.ar    
   5 C5             4.2291    -6.1398     0.4355 C.ar    
   6 N6             3.1334    -5.8565     1.1109 N.ar    
   7 O7             1.2143    -4.2205    -1.4371 O.3     
   8 C8             0.0932    -3.9423    -0.7215 C.ar    
   9 C9             0.0876    -2.8841     0.1765 C.ar    
  10 C10           -1.0536    -2.5998     0.9059 C.ar    
  11 C11           -2.1914    -3.3703     0.7419 C.ar    
  12 C12           -2.1894    -4.4302    -0.1554 C.ar    
  13 C13           -1.0470    -4.7119    -0.8923 C.ar    
  14 N14           -3.3388    -5.2092    -0.3210 N.am    
  15 C15           -3.2280    -6.5202    -0.6135 C.2     
  16 C16           -4.4394    -7.3203    -0.8918 C.ar    
  17 O17           -2.1319    -7.0446    -0.6486 O.2     
  18 C18           -5.6994    -6.7212    -0.8524 C.ar    
  19 F19           -1.0567    -1.5692     1.7794 F       
  20 C20           -6.8260    -7.4738    -1.1131 C.ar    
  21 C21           -6.7088    -8.8193    -1.4125 C.ar    
  22 C22           -5.4625    -9.4194    -1.4532 C.ar    
  23 C23           -4.3277    -8.6772    -1.2007 C.ar    
  24 S24           -5.3245   -11.1339    -1.8357 S.o2    
  25 N25           -5.1665   -11.2583    -3.4794 N.am    
  26 O26           -4.0919   -11.5710    -1.2799 O.2     
  27 O27           -6.5765   -11.7203    -1.5073 O.2     
  28 C28           -3.8355   -11.2375    -4.0910 C.3     
  29 C29           -6.3579   -11.3891    -4.3220 C.3     
  30 H30            1.2298    -4.9953     1.0936 H       
  31 H31            3.5240    -4.9207    -2.5234 H       
  32 H32            5.0360    -6.6537     0.9367 H       
  33 H33            0.9748    -2.2821     0.3064 H       
  34 H34           -3.0811    -3.1474     1.3121 H       
  35 H35           -1.0437    -5.5356    -1.5908 H       
  36 H36           -4.2159    -4.8061    -0.2253 H       
  37 H37           -5.7923    -5.6711    -0.6180 H       
  38 H38           -7.8016    -7.0116    -1.0829 H       
  39 H39           -7.5939    -9.4041    -1.6151 H       
  40 H40           -3.3556    -9.1467    -1.2328 H       
  41 H41           -3.4515   -12.2553    -4.1601 H       
  42 H42           -3.9011   -10.8054    -5.0896 H       
  43 H43           -3.1635   -10.6364    -3.4785 H       
  44 H44           -7.2490   -11.3854    -3.6943 H       
  45 H45           -6.4022   -10.5537    -5.0208 H       
  46 H46           -6.3088   -12.3255    -4.8777 H       
@<TRIPOS>BOND
   1    1    2 ar
   2    1    6 ar
   3    1   30 1
   4    2    3 ar
   5    2    7 1
   6    3    4 ar
   7    3   31 1
   8    4    5 ar
   9    5    6 ar
  10    5   32 1
  11    7    8 1
  12    8    9 ar
  13    8   13 ar
  14    9   10 ar
  15    9   33 1
  16   10   11 ar
  17   10   19 1
  18   11   12 ar
  19   11   34 1
  20   12   13 ar
  21   12   14 1
  22   13   35 1
  23   14   15 am
  24   14   36 1
  25   15   16 1
  26   15   17 2
  27   16   18 ar
  28   16   23 ar
  29   18   20 ar
  30   18   37 1
  31   20   21 ar
  32   20   38 1
  33   21   22 ar
  34   21   39 1
  35   22   23 ar
  36   22   24 1
  37   23   40 1
  38   24   25 am
  39   24   26 2
  40   24   27 2
  41   25   28 1
  42   25   29 1
  43   28   41 1
  44   28   42 1
  45   28   43 1
  46   29   44 1
  47   29   45 1
  48   29   46 1

#	End of record

