#	Name: ASD03082381
#	Creating user name:	WinNT
#	Creation time:	15. 06. 2019 20:27

#	Modifying user name:	WinNT
#	Modification time:	15. 06. 2019 20:27

#	Program:	/corina/corina34_cracker 3.40 0067  02.08.2006

@<TRIPOS>MOLECULE
ASD03082381
  59   62    0    0    0
SMALL
NO_CHARGES


@<TRIPOS>ATOM
   1 C1            -3.3346     0.5272     1.6948 C.ar    
   2 C2            -3.0817    -0.5764     0.8900 C.ar    
   3 C3            -4.1130    -1.1457     0.1529 C.ar    
   4 C4            -5.3849    -0.6130     0.2227 C.ar    
   5 C5            -5.6330     0.4862     1.0247 C.ar    
   6 C6            -4.6093     1.0549     1.7598 C.ar    
   7 N7            -1.7935    -1.1125     0.8215 N.pl3   
   8 C8            -1.6149    -2.4684     0.5274 C.2     
   9 C9            -0.3827    -3.1104     0.3153 C.2     
  10 N10           -2.5687    -3.3620     0.4076 N.2     
  11 N11           -1.9771    -4.5966     0.1107 N.pl3   
  12 C12           -0.6317    -4.4142     0.0597 C.2     
  13 C13           -2.6517    -5.8042    -0.0927 C.ar    
  14 C14           -2.1768    -6.9906     0.4627 C.ar    
  15 C15           -3.8198    -5.8514    -0.8516 C.ar    
  16 C16           -4.4560    -7.0628    -1.0285 C.ar    
  17 N17           -3.9718    -8.1660    -0.4900 N.ar    
  18 C18           -2.8720    -8.1615     0.2387 C.ar    
  19 C19           -5.7201    -7.1268    -1.8465 C.3     
  20 H20           -2.5087    -9.0865     0.6615 H       
  21 C21            0.3984    -5.4752    -0.2306 C.3     
  22 C22            1.0001    -5.9753     1.0843 C.3     
  23 C23            1.9477    -7.1424     0.8002 C.3     
  24 O24            2.5097    -7.6094     2.0283 O.3     
  25 C25            3.4144    -8.7048     1.8741 C.3     
  26 C26            3.9435    -9.1132     3.2247 C.ar    
  27 C27            3.2767   -10.0691     3.9681 C.ar    
  28 C28            3.7621   -10.4438     5.2070 C.ar    
  29 C29            4.9145    -9.8628     5.7024 C.ar    
  30 C30            5.5817    -8.9076     4.9587 C.ar    
  31 C31            5.0988    -8.5361     3.7179 C.ar    
  32 C32           -4.8846     2.2522     2.6326 C.3     
  33 F33           -6.2359     2.6006     2.5336 F       
  34 F34           -4.5796     1.9403     3.9619 F       
  35 F35           -4.0939     3.3272     2.2127 F       
  36 H36           -2.5363     0.9693     2.2725 H       
  37 H37           -3.9198    -2.0035    -0.4741 H       
  38 H38           -6.1869    -1.0549    -0.3500 H       
  39 H39           -6.6287     0.9013     1.0768 H       
  40 H40           -1.0229    -0.5446     0.9779 H       
  41 H41            0.5909    -2.6443     0.3499 H       
  42 H42           -1.2769    -6.9938     1.0599 H       
  43 H43           -4.2216    -4.9522    -1.2947 H       
  44 H44           -5.4681    -7.3110    -2.8908 H       
  45 H45           -6.3513    -7.9350    -1.4771 H       
  46 H46           -6.2551    -6.1808    -1.7631 H       
  47 H47           -0.0739    -6.3068    -0.7535 H       
  48 H48            1.1872    -5.0548    -0.8544 H       
  49 H49            1.5530    -5.1663     1.5617 H       
  50 H50            0.2008    -6.3090     1.7459 H       
  51 H51            1.3949    -7.9514     0.3228 H       
  52 H52            2.7471    -6.8086     0.1386 H       
  53 H53            2.8919    -9.5462     1.4189 H       
  54 H54            4.2441    -8.4034     1.2348 H       
  55 H55            2.3764   -10.5230     3.5810 H       
  56 H56            3.2408   -11.1901     5.7881 H       
  57 H57            5.2933   -10.1550     6.6707 H       
  58 H58            6.4819    -8.4534     5.3459 H       
  59 H59            5.6201    -7.7898     3.1368 H       
@<TRIPOS>BOND
   1    1    2 ar
   2    1    6 ar
   3    1   36 1
   4    2    3 ar
   5    2    7 1
   6    3    4 ar
   7    3   37 1
   8    4    5 ar
   9    4   38 1
  10    5    6 ar
  11    5   39 1
  12    6   32 1
  13    7    8 1
  14    7   40 1
  15    8    9 1
  16    8   10 2
  17    9   12 2
  18    9   41 1
  19   10   11 1
  20   11   12 1
  21   11   13 1
  22   12   21 1
  23   13   14 ar
  24   13   15 ar
  25   14   18 ar
  26   14   42 1
  27   15   16 ar
  28   15   43 1
  29   16   17 ar
  30   16   19 1
  31   17   18 ar
  32   18   20 1
  33   19   44 1
  34   19   45 1
  35   19   46 1
  36   21   22 1
  37   21   47 1
  38   21   48 1
  39   22   23 1
  40   22   49 1
  41   22   50 1
  42   23   24 1
  43   23   51 1
  44   23   52 1
  45   24   25 1
  46   25   26 1
  47   25   53 1
  48   25   54 1
  49   26   27 ar
  50   26   31 ar
  51   27   28 ar
  52   27   55 1
  53   28   29 ar
  54   28   56 1
  55   29   30 ar
  56   29   57 1
  57   30   31 ar
  58   30   58 1
  59   31   59 1
  60   32   33 1
  61   32   34 1
  62   32   35 1

#	End of record

