#	Name: ASD08170061
#	Creating user name:	WinNT
#	Creation time:	15. 06. 2019 21:17

#	Modifying user name:	WinNT
#	Modification time:	15. 06. 2019 21:17

#	Program:	/corina/corina34_cracker 3.40 0067  02.08.2006

@<TRIPOS>MOLECULE
ASD08170061
  99  102    0    0    0
SMALL
NO_CHARGES


@<TRIPOS>ATOM
   1 N1            -0.0150     1.2583     0.0090 N.2     
   2 N2             0.0021    -0.0041     0.0020 N.2     
   3 C3             1.1271     1.8769     0.0014 C.2     
   4 S4             2.3826     0.7116    -0.0169 S.3     
   5 C5             1.1681    -0.5677    -0.0121 C.2     
   6 C6             1.4387    -2.0502    -0.0227 C.3     
   7 C7             1.5165    -2.5442    -1.4687 C.3     
   8 C8             2.1699    -6.2152    -3.4347 C.3     
   9 C9             2.2167    -6.5408    -4.9053 C.2     
  10 N10            3.2694    -6.5184    -5.6596 N.2     
  11 S11            0.8491    -7.0282    -5.9071 S.3     
  12 C12            1.9000    -7.1354    -7.2557 C.2     
  13 N13            3.1017    -6.8250    -6.8728 N.2     
  14 N14            1.5289    -7.4992    -8.5457 N.am    
  15 C15            2.4537    -7.5464    -9.5250 C.2     
  16 O16            3.6096    -7.2716    -9.2812 O.2     
  17 C17            2.0516    -7.9407   -10.9228 C.3     
  18 N18            1.3017     3.2566     0.0067 N.am    
  19 C19            0.2284     4.0717     0.0214 C.2     
  20 C20            0.4176     5.5667     0.0272 C.3     
  21 O21           -0.8897     3.6019     0.0299 O.2     
  22 C22            1.8986    -4.7206    -3.2516 C.3     
  23 C23            3.2807    -7.9145   -11.8336 C.3     
  24 C24           -0.9494     6.2538     0.0441 C.3     
  25 S25            1.8422    -4.3286    -1.4814 S.3     
  26 C26           -0.7581     7.7665     0.1757 C.3     
  27 C27            2.8980    -8.4340   -13.2214 C.3     
  28 C28           -2.1292     8.4479     0.2271 C.3     
  29 N29           -2.9055     8.0380    -0.9511 N.am    
  30 C30           -3.0739     6.6038    -1.2222 C.3     
  31 C31           -1.6922     5.9431    -1.2574 C.3     
  32 C32            3.7991    -6.4793   -11.9493 C.3     
  33 C33            5.0498    -6.4621   -12.8338 C.3     
  34 N34            4.7274    -7.0929   -14.1210 N.am    
  35 C35            4.1385    -8.4389   -14.1202 C.3     
  36 C36           -3.4530     8.9601    -1.7675 C.2     
  37 O37           -4.1619     8.5703    -2.8437 O.3     
  38 O38           -3.3068    10.1432    -1.5322 O.2     
  39 C39           -4.7226     9.6178    -3.6784 C.3     
  40 C40           -3.5934    10.4935    -4.2251 C.3     
  41 C41           -5.4882     8.9868    -4.8431 C.3     
  42 C42           -5.6770    10.4768    -2.8465 C.3     
  43 C43            4.9669    -6.4487   -15.2804 C.2     
  44 O44            5.4539    -5.3356   -15.2676 O.2     
  45 O45            4.6664    -7.0387   -16.4527 O.3     
  46 C46            4.9515    -6.2863   -17.6614 C.3     
  47 C47            6.4484    -5.9769   -17.7286 C.3     
  48 C48            4.5461    -7.1123   -18.8839 C.3     
  49 C49            4.1603    -4.9768   -17.6455 C.3     
  50 H50            2.3843    -2.2506     0.4811 H       
  51 H51            0.6334    -2.5702     0.4961 H       
  52 H52            0.5709    -2.3438    -1.9724 H       
  53 H53            2.3218    -2.0242    -1.9874 H       
  54 H54            1.3741    -6.7896    -2.9605 H       
  55 H55            3.1250    -6.4700    -2.9755 H       
  56 H56            0.6045    -7.7190    -8.7407 H       
  57 H57            1.6303    -8.9459   -10.9098 H       
  58 H58            1.3064    -7.2392   -11.2980 H       
  59 H59            2.1959     3.6323    -0.0001 H       
  60 H60            0.9817     5.8582     0.9132 H       
  61 H61            0.9643     5.8672    -0.8667 H       
  62 H62            2.6943    -4.1461    -3.7258 H       
  63 H63            0.9434    -4.4658    -3.7108 H       
  64 H64            4.0597    -8.5488   -11.4105 H       
  65 H65           -1.5301     5.8862     0.8901 H       
  66 H66           -0.2085     7.9854     1.0911 H       
  67 H67           -0.1989     8.1385    -0.6828 H       
  68 H68            2.5070    -9.4478   -13.1353 H       
  69 H69            2.1369    -7.7856   -13.6553 H       
  70 H70           -2.6537     8.1456     1.1335 H       
  71 H71           -1.9998     9.5301     0.2210 H       
  72 H72           -3.6755     6.1512    -0.4340 H       
  73 H73           -3.5678     6.4694    -2.1845 H       
  74 H74           -1.1242     6.3323    -2.1023 H       
  75 H75           -1.8075     4.8643    -1.3619 H       
  76 H76            3.0295    -5.8493   -12.3953 H       
  77 H77            4.0495    -6.1018   -10.9578 H       
  78 H78            5.3654    -5.4322   -13.0004 H       
  79 H79            5.8505    -7.0173   -12.3452 H       
  80 H80            4.8649    -9.1554   -13.7366 H       
  81 H81            3.8528    -8.7134   -15.1357 H       
  82 H82           -2.9134     9.8816    -4.8178 H       
  83 H83           -4.0143    11.2799    -4.8517 H       
  84 H84           -3.0480    10.9431    -3.3953 H       
  85 H85           -6.2926     8.3629    -4.4537 H       
  86 H86           -5.9091     9.7731    -5.4697 H       
  87 H87           -4.8082     8.3748    -5.4358 H       
  88 H88           -5.1316    10.9264    -2.0167 H       
  89 H89           -6.0979    11.2631    -3.4731 H       
  90 H90           -6.4815     9.8529    -2.4570 H       
  91 H91            7.0120    -6.9098   -17.7399 H       
  92 H92            6.6623    -5.4121   -18.6359 H       
  93 H93            6.7372    -5.3885   -16.8577 H       
  94 H94            3.4797    -7.3327   -18.8360 H       
  95 H95            4.7600    -6.5474   -19.7912 H       
  96 H96            5.1097    -8.0452   -18.8952 H       
  97 H97            4.4491    -4.3884   -16.7747 H       
  98 H98            4.3742    -4.4120   -18.5529 H       
  99 H99            3.0939    -5.1972   -17.5977 H       
@<TRIPOS>BOND
   1    1    2 1
   2    1    3 2
   3    2    5 2
   4    3    4 1
   5    3   18 1
   6    4    5 1
   7    5    6 1
   8    6    7 1
   9    6   50 1
  10    6   51 1
  11    7   25 1
  12    7   52 1
  13    7   53 1
  14    8    9 1
  15    8   22 1
  16    8   54 1
  17    8   55 1
  18    9   10 2
  19    9   11 1
  20   10   13 1
  21   11   12 1
  22   12   13 2
  23   12   14 1
  24   14   15 am
  25   14   56 1
  26   15   16 2
  27   15   17 1
  28   17   23 1
  29   17   57 1
  30   17   58 1
  31   18   19 am
  32   18   59 1
  33   19   20 1
  34   19   21 2
  35   20   24 1
  36   20   60 1
  37   20   61 1
  38   22   25 1
  39   22   62 1
  40   22   63 1
  41   23   27 1
  42   23   32 1
  43   23   64 1
  44   24   26 1
  45   24   31 1
  46   24   65 1
  47   26   28 1
  48   26   66 1
  49   26   67 1
  50   27   35 1
  51   27   68 1
  52   27   69 1
  53   28   29 1
  54   28   70 1
  55   28   71 1
  56   29   30 1
  57   29   36 am
  58   30   31 1
  59   30   72 1
  60   30   73 1
  61   31   74 1
  62   31   75 1
  63   32   33 1
  64   32   76 1
  65   32   77 1
  66   33   34 1
  67   33   78 1
  68   33   79 1
  69   34   35 1
  70   34   43 am
  71   35   80 1
  72   35   81 1
  73   36   37 1
  74   36   38 2
  75   37   39 1
  76   39   40 1
  77   39   41 1
  78   39   42 1
  79   40   82 1
  80   40   83 1
  81   40   84 1
  82   41   85 1
  83   41   86 1
  84   41   87 1
  85   42   88 1
  86   42   89 1
  87   42   90 1
  88   43   44 2
  89   43   45 1
  90   45   46 1
  91   46   47 1
  92   46   48 1
  93   46   49 1
  94   47   91 1
  95   47   92 1
  96   47   93 1
  97   48   94 1
  98   48   95 1
  99   48   96 1
 100   49   97 1
 101   49   98 1
 102   49   99 1

#	End of record

