#	Name: ASD01911397
#	Creating user name:	WinNT
#	Creation time:	15. 06. 2019 19:57

#	Modifying user name:	WinNT
#	Modification time:	15. 06. 2019 19:57

#	Program:	/corina/corina34_cracker 3.40 0067  02.08.2006

@<TRIPOS>MOLECULE
ASD01911397
  38   39    0    0    0
SMALL
NO_CHARGES


@<TRIPOS>ATOM
   1 N1            -0.0169     1.3965     0.0097 N.2     
   2 N2             0.0021    -0.0041     0.0020 N.pl3   
   3 C3             1.2284     1.8226     0.0001 C.2     
   4 C4             2.0723     0.6949    -0.0140 C.2     
   5 C5             1.2908    -0.4070    -0.0125 C.2     
   6 C6             1.7726    -1.8349    -0.0247 C.3     
   7 C7             1.6661     3.2407     0.0028 C.ar    
   8 C8             0.7196     4.2634     0.0171 C.ar    
   9 C9            -1.1724    -0.8798     0.0090 C.3     
  10 C10           -1.5888    -1.1729    -1.4094 C.2     
  11 O11           -2.6491    -1.9605    -1.6484 O.3     
  12 O12           -0.9682    -0.6990    -2.3314 O.2     
  13 C13            3.0470    -1.9359    -0.8654 C.3     
  14 C14            1.1293     5.5803     0.0200 C.ar    
  15 C15            2.4830     5.8875     0.0088 C.ar    
  16 C16            3.4281     4.8709    -0.0059 C.ar    
  17 C17            3.0244     3.5521    -0.0031 C.ar    
  18 C18            2.0691    -2.2854     1.4071 C.3     
  19 O19            2.8837     7.1860     0.0117 O.3     
  20 C20            4.2916     7.4304    -0.0003 C.3     
  21 H21            3.1521     0.7088    -0.0248 H       
  22 H22            1.0020    -2.4747    -0.4547 H       
  23 H23           -0.3337     4.0249     0.0254 H       
  24 H24           -0.9268    -1.8130     0.5158 H       
  25 H25           -1.9906    -0.3861     0.5332 H       
  26 H26           -2.8779    -2.1197    -2.5744 H       
  27 H27            3.8176    -1.2961    -0.4354 H       
  28 H28            3.3954    -2.9687    -0.8742 H       
  29 H29            2.8358    -1.6149    -1.8854 H       
  30 H30            0.3962     6.3733     0.0307 H       
  31 H31            4.4806     5.1128    -0.0153 H       
  32 H32            3.7601     2.7615    -0.0145 H       
  33 H33            1.1612    -2.2134     2.0060 H       
  34 H34            2.4176    -3.3182     1.3982 H       
  35 H35            2.8397    -1.6456     1.8371 H       
  36 H36            4.7290     6.9909    -0.8968 H       
  37 H37            4.4738     8.5051     0.0035 H       
  38 H38            4.7459     6.9817     0.8831 H       
@<TRIPOS>BOND
   1    1    2 1
   2    1    3 2
   3    2    9 1
   4    2    5 1
   5    3    4 1
   6    3    7 1
   7    4    5 2
   8    4   21 1
   9    5    6 1
  10    6   13 1
  11    6   18 1
  12    6   22 1
  13    7    8 ar
  14    7   17 ar
  15    8   14 ar
  16    8   23 1
  17    9   10 1
  18    9   24 1
  19    9   25 1
  20   10   11 1
  21   10   12 2
  22   11   26 1
  23   13   27 1
  24   13   28 1
  25   13   29 1
  26   14   15 ar
  27   14   30 1
  28   15   16 ar
  29   15   19 1
  30   16   17 ar
  31   16   31 1
  32   17   32 1
  33   18   33 1
  34   18   34 1
  35   18   35 1
  36   19   20 1
  37   20   36 1
  38   20   37 1
  39   20   38 1

#	End of record

