#	Name: ASD01810272
#	Creating user name:	WinNT
#	Creation time:	15. 06. 2019 19:24

#	Modifying user name:	WinNT
#	Modification time:	15. 06. 2019 19:24

#	Program:	/corina/corina34_cracker 3.40 0067  02.08.2006

@<TRIPOS>MOLECULE
ASD01810272
  44   47    0    0    0
SMALL
NO_CHARGES


@<TRIPOS>ATOM
   1 C1             1.1596     2.2502    -0.5158 C.ar    
   2 C2             0.7827     0.9161    -0.5004 C.ar    
   3 C3             1.7243    -0.0813    -0.3476 C.ar    
   4 C4             3.0713     0.2477    -0.2072 C.ar    
   5 C5             3.4519     1.6004    -0.2236 C.ar    
   6 C6             2.4880     2.5999    -0.3785 C.ar    
   7 N7             4.0212    -0.7401    -0.0534 N.pl3   
   8 C8             5.3264    -0.4757     0.0859 C.2     
   9 C9             5.8197     0.8134     0.0854 C.2     
  10 C10            4.8793     1.9347    -0.0742 C.2     
  11 O11            5.2648     3.0908    -0.0812 O.2     
  12 C12            3.5837    -2.1382    -0.0416 C.3     
  13 C13            3.4399    -2.6316    -1.4583 C.ar    
  14 C14            4.5229    -2.5802    -2.3204 C.ar    
  15 C15            4.3949    -3.0315    -3.6211 C.ar    
  16 C16            3.1749    -3.5382    -4.0623 C.ar    
  17 C17            2.0894    -3.5875    -3.1895 C.ar    
  18 C18            2.2286    -3.1394    -1.8917 C.ar    
  19 C19            3.0311    -4.0236    -5.4572 C.ar    
  20 C20            7.2596     1.0624     0.2415 C.2     
  21 O21            7.7293     2.3260     0.2393 O.3     
  22 O22            8.0272     0.1288     0.3725 O.2     
  23 C23            1.8107    -4.5306    -5.8988 C.ar    
  24 C24            1.6826    -4.9807    -7.1972 C.ar    
  25 C25            2.7630    -4.9297    -8.0594 C.ar    
  26 C26            3.9768    -4.4274    -7.6263 C.ar    
  27 C27            4.1144    -3.9688    -6.3318 C.ar    
  28 F28            2.8538     3.9003    -0.3947 F       
  29 F29            1.3402    -1.3765    -0.3338 F       
  30 F30            5.7052    -2.0882    -1.8900 F       
  31 H31            0.4114     3.0189    -0.6403 H       
  32 H32           -0.2595     0.6544    -0.6087 H       
  33 H33            6.0161    -1.2985     0.2030 H       
  34 H34            4.3222    -2.7456     0.4815 H       
  35 H35            2.6235    -2.2141     0.4688 H       
  36 H36            5.2391    -2.9908    -4.2936 H       
  37 H37            1.1415    -3.9796    -3.5273 H       
  38 H38            1.3875    -3.1779    -1.2153 H       
  39 H39            8.6837     2.4398     0.3451 H       
  40 H40            0.9666    -4.5715    -5.2262 H       
  41 H41            0.7371    -5.3739    -7.5406 H       
  42 H42            2.6586    -5.2836    -9.0744 H       
  43 H43            4.8172    -4.3898    -8.3036 H       
  44 H44            5.0626    -3.5768    -5.9946 H       
@<TRIPOS>BOND
   1    1    2 ar
   2    1    6 ar
   3    1   31 1
   4    2    3 ar
   5    2   32 1
   6    3    4 ar
   7    3   29 1
   8    4    5 ar
   9    4    7 1
  10    5    6 ar
  11    5   10 1
  12    6   28 1
  13    7    8 1
  14    7   12 1
  15    8    9 2
  16    8   33 1
  17    9   10 1
  18    9   20 1
  19   10   11 2
  20   12   13 1
  21   12   34 1
  22   12   35 1
  23   13   14 ar
  24   13   18 ar
  25   14   15 ar
  26   14   30 1
  27   15   16 ar
  28   15   36 1
  29   16   17 ar
  30   16   19 1
  31   17   18 ar
  32   17   37 1
  33   18   38 1
  34   19   23 ar
  35   19   27 ar
  36   20   21 1
  37   20   22 2
  38   21   39 1
  39   23   24 ar
  40   23   40 1
  41   24   25 ar
  42   24   41 1
  43   25   26 ar
  44   25   42 1
  45   26   27 ar
  46   26   43 1
  47   27   44 1

#	End of record

