#	Name: ASD01883719
#	Creating user name:	WinNT
#	Creation time:	15. 06. 2019 19:46

#	Modifying user name:	WinNT
#	Modification time:	15. 06. 2019 19:46

#	Program:	/corina/corina34_cracker 3.40 0067  02.08.2006

@<TRIPOS>MOLECULE
ASD01883719
  57   60    0    0    0
SMALL
NO_CHARGES


@<TRIPOS>ATOM
   1 C1            -0.0169     1.3984     0.0097 C.2     
   2 C2             0.0021    -0.0041     0.0020 C.2     
   3 C3            -1.2223    -0.7047     0.0099 C.2     
   4 C4            -2.3969    -0.0475     0.0242 C.2     
   5 N5            -2.4615     1.3157     0.0321 N.pl3   
   6 C6            -1.3172     2.0717     0.0319 C.2     
   7 C7            -3.5157     2.1918     0.0464 C.2     
   8 C8            -2.9979     3.4382     0.0483 C.2     
   9 N9            -1.6639     3.3462     0.0404 N.2     
  10 C10           -4.9788     1.8308     0.0574 C.3     
  11 C11           -5.5169     1.8388    -1.3749 C.3     
  12 C12            1.2855    -0.7368    -0.0146 C.ar    
  13 C13            1.6508    -1.5333     1.0733 C.ar    
  14 C14            2.8472    -2.2152     1.0546 C.ar    
  15 C15            3.6917    -2.1114    -0.0462 C.ar    
  16 C16            3.3308    -1.3185    -1.1310 C.ar    
  17 C17            2.1331    -0.6387    -1.1207 C.ar    
  18 F18           -4.8121     0.9058    -2.1430 F       
  19 F19           -6.8751     1.5038    -1.3647 F       
  20 F20           -5.3553     3.1143    -1.9266 F       
  21 N21            4.9015    -2.8026    -0.0621 N.3     
  22 C22            5.6332    -2.5540    -1.3108 C.3     
  23 C23            6.8815    -3.4382    -1.3568 C.3     
  24 C24            7.7702    -3.1214    -0.1508 C.3     
  25 C25            6.9692    -3.3419     1.1355 C.3     
  26 C26            5.7184    -2.4605     1.1092 C.3     
  27 C27            8.9902    -4.0446    -0.1581 C.3     
  28 C28            9.8122    -3.8135     1.1115 C.3     
  29 C29            8.5267    -5.5019    -0.2073 C.3     
  30 O30            9.7948    -3.7617    -1.3046 O.3     
  31 C31            1.2014     2.1509     0.0021 C.1     
  32 N32            2.1678     2.7479    -0.0039 N.1     
  33 H33           -1.2171    -1.7847     0.0041 H       
  34 H34           -3.3154    -0.6157     0.0291 H       
  35 H35           -3.5661     4.3566     0.0585 H       
  36 H36           -5.1047     0.8371     0.4872 H       
  37 H37           -5.5279     2.5578     0.6558 H       
  38 H38            0.9959    -1.6141     1.9282 H       
  39 H39            3.1303    -2.8310     1.8955 H       
  40 H40            3.9887    -1.2393    -1.9838 H       
  41 H41            1.8534    -0.0236    -1.9632 H       
  42 H42            4.9915    -2.7872    -2.1604 H       
  43 H43            5.9288    -1.5058    -1.3560 H       
  44 H44            6.5859    -4.4869    -1.3255 H       
  45 H45            7.4326    -3.2421    -2.2765 H       
  46 H46            8.0977    -2.0830    -0.2024 H       
  47 H47            6.6751    -4.3891     1.2060 H       
  48 H48            7.5831    -3.0770     1.9963 H       
  49 H49            6.0136    -1.4127     1.0526 H       
  50 H50            5.1386    -2.6258     2.0173 H       
  51 H51            9.1984    -4.0294     1.9861 H       
  52 H52           10.6814    -4.4713     1.1063 H       
  53 H53           10.1424    -2.7754     1.1466 H       
  54 H54            7.9410    -5.6665    -1.1118 H       
  55 H55            9.3958    -6.1596    -0.2125 H       
  56 H56            7.9129    -5.7177     0.6672 H       
  57 H57           10.1243    -2.8532    -1.3394 H       
@<TRIPOS>BOND
   1    1    2 2
   2    1   31 1
   3    1    6 1
   4    2    3 1
   5    2   12 1
   6    3    4 2
   7    3   33 1
   8    4    5 1
   9    4   34 1
  10    5    6 1
  11    5    7 1
  12    6    9 2
  13    7    8 2
  14    7   10 1
  15    8    9 1
  16    8   35 1
  17   10   11 1
  18   10   36 1
  19   10   37 1
  20   11   18 1
  21   11   19 1
  22   11   20 1
  23   12   13 ar
  24   12   17 ar
  25   13   14 ar
  26   13   38 1
  27   14   15 ar
  28   14   39 1
  29   15   16 ar
  30   15   21 1
  31   16   17 ar
  32   16   40 1
  33   17   41 1
  34   21   22 1
  35   21   26 1
  36   22   23 1
  37   22   42 1
  38   22   43 1
  39   23   24 1
  40   23   44 1
  41   23   45 1
  42   24   25 1
  43   24   27 1
  44   24   46 1
  45   25   26 1
  46   25   47 1
  47   25   48 1
  48   26   49 1
  49   26   50 1
  50   27   28 1
  51   27   29 1
  52   27   30 1
  53   28   51 1
  54   28   52 1
  55   28   53 1
  56   29   54 1
  57   29   55 1
  58   29   56 1
  59   30   57 1
  60   31   32 3

#	End of record

