#	Name: ASD00190038
#	Creating user name:	WinNT
#	Creation time:	15. 06. 2019 18:33

#	Modifying user name:	WinNT
#	Modification time:	15. 06. 2019 18:33

#	Program:	/corina/corina34_cracker 3.40 0067  02.08.2006

@<TRIPOS>MOLECULE
ASD00190038
  32   35    0    0    0
SMALL
NO_CHARGES


@<TRIPOS>ATOM
   1 C1            -0.0141     1.3575     0.0065 C.ar    
   2 C2             0.0051    -0.0052    -0.0086 C.ar    
   3 C3             1.2070    -0.7047    -0.0377 C.ar    
   4 C4             2.3992    -0.0413    -0.0520 C.ar    
   5 C5             2.4138     1.3571    -0.0376 C.ar    
   6 C6             1.1926     2.0734    -0.0079 C.ar    
   7 C7             3.6590     2.1125    -0.0513 C.ar    
   8 C8             3.5790     3.5086    -0.0348 C.ar    
   9 C9             2.3057     4.1210    -0.0061 C.ar    
  10 N10            1.1984     3.4146     0.0070 N.ar    
  11 N11            4.9901     1.8002    -0.0781 N.pl3   
  12 C12            5.6816     2.9727    -0.0776 C.2     
  13 N13            4.8505     3.9750    -0.0521 N.2     
  14 N14            2.2232     5.5040     0.0108 N.pl3   
  15 C15            0.9769     6.1312    -0.0808 C.ar    
  16 C16            0.7422     7.3157     0.6053 C.ar    
  17 C17           -0.4897     7.9339     0.5131 C.ar    
  18 C18           -1.4899     7.3743    -0.2615 C.ar    
  19 C19           -1.2592     6.1929    -0.9471 C.ar    
  20 C20           -0.0267     5.5736    -0.8627 C.ar    
  21 Cl21          -2.5168     5.4936    -1.9182 Cl      
  22 Cl22          -3.0371     8.1535    -0.3741 Cl      
  23 H23           -0.9562     1.8853     0.0250 H       
  24 H24           -0.9273    -0.5503     0.0026 H       
  25 H25            1.1964    -1.7846    -0.0489 H       
  26 H26            3.3271    -0.5934    -0.0739 H       
  27 H27            5.3710     0.9083    -0.0942 H       
  28 H28            6.7580     3.0588    -0.0953 H       
  29 H29            3.0300     6.0371     0.0862 H       
  30 H30            1.5222     7.7530     1.2109 H       
  31 H31           -0.6722     8.8550     1.0466 H       
  32 H32            0.1533     4.6527    -1.3975 H       
@<TRIPOS>BOND
   1    1    2 ar
   2    1    6 ar
   3    1   23 1
   4    2    3 ar
   5    2   24 1
   6    3    4 ar
   7    3   25 1
   8    4    5 ar
   9    4   26 1
  10    5    6 ar
  11    5    7 ar
  12    6   10 ar
  13    7    8 ar
  14    7   11 1
  15    8    9 ar
  16    8   13 1
  17    9   10 ar
  18    9   14 1
  19   11   12 1
  20   11   27 1
  21   12   13 2
  22   12   28 1
  23   14   15 1
  24   14   29 1
  25   15   16 ar
  26   15   20 ar
  27   16   17 ar
  28   16   30 1
  29   17   18 ar
  30   17   31 1
  31   18   19 ar
  32   18   22 1
  33   19   20 ar
  34   19   21 1
  35   20   32 1

#	End of record

