#	Name: ASD00122074
#	Creating user name:	WinNT
#	Creation time:	15. 06. 2019 18:31

#	Modifying user name:	WinNT
#	Modification time:	15. 06. 2019 18:31

#	Program:	/corina/corina34_cracker 3.40 0067  02.08.2006

@<TRIPOS>MOLECULE
ASD00122074
  17   18    0    0    0
SMALL
NO_CHARGES


@<TRIPOS>ATOM
   1 C1            -0.0158     1.3160     0.0093 C.ar    
   2 N2             0.0021    -0.0041     0.0020 N.ar    
   3 C3             1.1490    -0.6771    -0.0125 C.ar    
   4 C4             2.3521     0.0502    -0.0201 C.ar    
   5 C5             2.2788     1.4533    -0.0119 C.ar    
   6 N6             1.0852     2.0379     0.0026 N.ar    
   7 S7             1.1606    -2.4390    -0.0215 S.3     
   8 N8             3.6653    -0.2810    -0.0344 N.2     
   9 C9             4.3856     0.8030    -0.0354 C.2     
  10 N10            3.5761     1.8998    -0.0218 N.pl3   
  11 C11           -0.6198    -2.7650    -0.0059 C.3     
  12 H12           -0.9695     1.8228     0.0165 H       
  13 H13            5.4652     0.8297    -0.0452 H       
  14 H14            3.8644     2.8260    -0.0196 H       
  15 H15           -1.0610    -2.3295     0.8907 H       
  16 H16           -1.0783    -2.3206    -0.8892 H       
  17 H17           -0.7921    -3.8413    -0.0096 H       
@<TRIPOS>BOND
   1    1    2 ar
   2    1    6 ar
   3    1   12 1
   4    2    3 ar
   5    3    4 ar
   6    3    7 1
   7    4    5 ar
   8    4    8 1
   9    5    6 ar
  10    5   10 1
  11    7   11 1
  12    8    9 2
  13    9   10 1
  14    9   13 1
  15   10   14 1
  16   11   15 1
  17   11   16 1
  18   11   17 1

#	End of record

