#	Name: ASD01141065
#	Creating user name:	WinNT
#	Creation time:	15. 06. 2019 19:01

#	Modifying user name:	WinNT
#	Modification time:	15. 06. 2019 19:01

#	Program:	/corina/corina34_cracker 3.40 0067  02.08.2006

@<TRIPOS>MOLECULE
ASD01141065
  34   35    0    0    0
SMALL
NO_CHARGES


@<TRIPOS>ATOM
   1 C1             0.4211     1.0372    -0.2100 C.2     
   2 C2             0.0960    -0.2447     0.4242 C.2     
   3 C3             0.8087     1.0792    -1.6360 C.ar    
   4 O4             0.3670     2.0670     0.4365 O.2     
   5 C5             1.1334    -1.2733     0.5751 C.2     
   6 C6            -1.1864    -0.4846     0.8796 C.2     
   7 C7             0.7560    -0.0807    -2.4116 C.ar    
   8 C8             1.2238     2.2808    -2.2153 C.ar    
   9 O9             0.8392    -2.3773     0.9935 O.2     
  10 N10            2.4114    -0.9944     0.2502 N.am    
  11 N11           -1.4401    -1.5698     1.6410 N.pl3   
  12 C12            1.1184    -0.0346    -3.7413 C.ar    
  13 C13            1.5839     2.3121    -3.5486 C.ar    
  14 Cl14           1.2864     3.7306    -1.2625 Cl      
  15 C15           -2.7378    -1.8136     2.1002 C.ar    
  16 C16            1.5340     1.1579    -4.3084 C.ar    
  17 C17           -3.7683    -0.9430     1.7688 C.ar    
  18 C18           -3.0004    -2.9301     2.8839 C.ar    
  19 C19           -5.0493    -1.1865     2.2234 C.ar    
  20 C20           -4.2834    -3.1687     3.3357 C.ar    
  21 C21           -5.3070    -2.2968     3.0083 C.ar    
  22 Cl22          -6.9185    -2.5995     3.5785 Cl      
  23 H23            2.6611    -0.0925    -0.0053 H       
  24 H24           -0.7221    -2.1806     1.8696 H       
  25 H25           -1.9857     0.1961     0.6263 H       
  26 H26            0.4324    -1.0121    -1.9710 H       
  27 H27            3.0814    -1.6954     0.2717 H       
  28 H28            1.0819    -0.9322    -4.3408 H       
  29 H29            1.9048     3.2400    -3.9986 H       
  30 H30            1.8166     1.1877    -5.3504 H       
  31 H31           -3.5677    -0.0762     1.1565 H       
  32 H32           -2.2020    -3.6111     3.1393 H       
  33 H33           -5.8508    -0.5097     1.9663 H       
  34 H34           -4.4881    -4.0366     3.9450 H       
@<TRIPOS>BOND
   1    1    2 1
   2    1    3 1
   3    1    4 2
   4    2    5 1
   5    2    6 2
   6    3    7 ar
   7    3    8 ar
   8    5   10 am
   9    5    9 2
  10    6   11 1
  11    6   25 1
  12    7   12 ar
  13    7   26 1
  14    8   13 ar
  15    8   14 1
  16   10   23 1
  17   10   27 1
  18   11   24 1
  19   11   15 1
  20   12   16 ar
  21   12   28 1
  22   13   16 ar
  23   13   29 1
  24   15   18 ar
  25   15   17 ar
  26   16   30 1
  27   17   19 ar
  28   17   31 1
  29   18   20 ar
  30   18   32 1
  31   19   21 ar
  32   19   33 1
  33   20   21 ar
  34   20   34 1
  35   21   22 1

#	End of record

