#	Name: ASD01910122
#	Creating user name:	WinNT
#	Creation time:	15. 06. 2019 19:55

#	Modifying user name:	WinNT
#	Modification time:	15. 06. 2019 19:55

#	Program:	/corina/corina34_cracker 3.40 0067  02.08.2006

@<TRIPOS>MOLECULE
ASD01910122
  48   51    0    0    0
SMALL
NO_CHARGES


@<TRIPOS>ATOM
   1 C1            -0.1233     0.5054    -0.3977 C.ar    
   2 C2            -0.3164    -0.8616    -0.4590 C.ar    
   3 C3            -1.5953    -1.3941    -0.4001 C.ar    
   4 C4            -2.6861    -0.5490    -0.2785 C.ar    
   5 C5            -2.4891     0.8456    -0.2155 C.ar    
   6 C6            -1.2053     1.3631    -0.2707 C.ar    
   7 C7            -4.1471    -0.7554    -0.1892 C.2     
   8 N8            -4.7439     0.4454    -0.0821 N.am    
   9 C9            -3.8371     1.4390    -0.0901 C.2     
  10 C10           -6.1911     0.6449     0.0278 C.3     
  11 C11           -6.6120     0.4873     1.4662 C.ar    
  12 C12           -6.4904     1.5541     2.3468 C.ar    
  13 C13           -6.8793     1.4054     3.6721 C.ar    
  14 C14           -7.3857     0.1978     4.1103 C.ar    
  15 C15           -7.5059    -0.8638     3.2305 C.ar    
  16 C16           -7.1245    -0.7167     1.9085 C.ar    
  17 N17           -5.9766     2.7761     1.9003 N.am    
  18 C18           -5.4535     3.6501     2.7830 C.2     
  19 C19           -5.0170     4.9904     2.3280 C.ar    
  20 O20           -5.3400     3.3384     3.9521 O.2     
  21 O21           -4.0845     2.6252    -0.0083 O.2     
  22 O22           -4.7138    -1.8294    -0.2097 O.2     
  23 Cl23          -8.1424    -2.3808     3.7849 Cl      
  24 C24           -4.4771     5.8891     3.2450 C.ar    
  25 C25           -4.0727     7.1396     2.8042 C.ar    
  26 C26           -4.2223     7.4474     1.4612 C.ar    
  27 C27           -4.7676     6.5040     0.6046 C.ar    
  28 N28           -5.1384     5.3231     1.0485 N.ar    
  29 C29            1.2734     1.0674    -0.4631 C.3     
  30 C30            0.8712    -1.7798    -0.5912 C.3     
  31 H31           -1.7403    -2.4632    -0.4491 H       
  32 H32           -1.0484     2.4305    -0.2226 H       
  33 H33           -6.4471     1.6463    -0.3180 H       
  34 H34           -6.7073    -0.0942    -0.5849 H       
  35 H35           -6.7854     2.2334     4.3591 H       
  36 H36           -7.6879     0.0816     5.1406 H       
  37 H37           -7.2194    -1.5467     1.2241 H       
  38 H38           -5.9969     2.9945     0.9555 H       
  39 H39           -4.3755     5.6158     4.2849 H       
  40 H40           -3.6508     7.8578     3.4917 H       
  41 H41           -3.9174     8.4131     1.0859 H       
  42 H42           -4.8856     6.7406    -0.4425 H       
  43 H43            1.5397     1.2587    -1.5026 H       
  44 H44            1.3168     1.9994     0.1005 H       
  45 H45            1.9739     0.3507    -0.0346 H       
  46 H46            1.2283    -2.0571     0.4006 H       
  47 H47            0.5777    -2.6773    -1.1358 H       
  48 H48            1.6665    -1.2693    -1.1342 H       
@<TRIPOS>BOND
   1    1    2 ar
   2    1   29 1
   3    1    6 ar
   4    2    3 ar
   5    2   30 1
   6    3    4 ar
   7    3   31 1
   8    4    5 ar
   9    4    7 1
  10    5    6 ar
  11    5    9 1
  12    6   32 1
  13    7    8 am
  14    7   22 2
  15    8    9 am
  16    8   10 1
  17    9   21 2
  18   10   11 1
  19   10   33 1
  20   10   34 1
  21   11   12 ar
  22   11   16 ar
  23   12   13 ar
  24   12   17 1
  25   13   14 ar
  26   13   35 1
  27   14   15 ar
  28   14   36 1
  29   15   16 ar
  30   15   23 1
  31   16   37 1
  32   17   18 am
  33   17   38 1
  34   18   19 1
  35   18   20 2
  36   19   24 ar
  37   19   28 ar
  38   24   25 ar
  39   24   39 1
  40   25   26 ar
  41   25   40 1
  42   26   27 ar
  43   26   41 1
  44   27   28 ar
  45   27   42 1
  46   29   43 1
  47   29   44 1
  48   29   45 1
  49   30   46 1
  50   30   47 1
  51   30   48 1

#	End of record

