#	Name: ASD03090828
#	Creating user name:	WinNT
#	Creation time:	15. 06. 2019 20:29

#	Modifying user name:	WinNT
#	Modification time:	15. 06. 2019 20:29

#	Program:	/corina/corina34_cracker 3.40 0067  02.08.2006

@<TRIPOS>MOLECULE
ASD03090828
  36   38    0    0    0
SMALL
NO_CHARGES


@<TRIPOS>ATOM
   1 N1            -0.0162     1.3436     0.0094 N.am    
   2 C2             0.0021    -0.0041     0.0020 C.2     
   3 O3             1.0654    -0.5989    -0.0113 O.2     
   4 N4            -1.1478    -0.6890     0.0093 N.2     
   5 C5             1.2424     2.0932     0.0014 C.3     
   6 C6            -1.2947     2.0587     0.0194 C.3     
   7 O7            -0.0351    -2.7920    -0.0121 O.3     
   8 C8            -1.1298    -2.0152     0.0020 C.2     
   9 N9            -2.2180    -2.8328     0.0084 N.pl3   
  10 C10           -1.7468    -4.1388    -0.0025 C.2     
  11 C11           -0.4209    -4.0883    -0.0148 C.2     
  12 C12            0.5028    -5.2790    -0.0298 C.3     
  13 O13           -7.5759    -1.5052     0.0691 O.3     
  14 C14           -8.0780    -2.7905     0.4801 C.3     
  15 O15           -7.0559    -3.7100     0.0522 O.3     
  16 C16           -5.8968    -2.9889     0.0442 C.ar    
  17 C17           -6.2161    -1.6327     0.0546 C.ar    
  18 C18           -4.5705    -3.3854     0.0286 C.ar    
  19 C19           -3.5613    -2.4318     0.0237 C.ar    
  20 C20           -3.8825    -1.0815     0.0346 C.ar    
  21 C21           -5.2062    -0.6846     0.0498 C.ar    
  22 F22           -8.2304    -2.8372     1.8700 F       
  23 F23           -9.2906    -3.0716    -0.1584 F       
  24 H24            1.5448     2.2847    -1.0281 H       
  25 H25            1.1041     3.0410     0.5217 H       
  26 H26            2.0149     1.5118     0.5048 H       
  27 H27           -1.6069     2.2305     1.0495 H       
  28 H28           -1.1798     3.0156    -0.4898 H       
  29 H29           -2.0487     1.4622    -0.4941 H       
  30 H30           -2.3506    -5.0343    -0.0011 H       
  31 H31            1.5374    -4.9361    -0.0378 H       
  32 H32            0.3279    -5.8857     0.8587 H       
  33 H33            0.3110    -5.8763    -0.9211 H       
  34 H34           -4.3209    -4.4362     0.0208 H       
  35 H35           -3.0970    -0.3402     0.0308 H       
  36 H36           -5.4537     0.3667     0.0575 H       
@<TRIPOS>BOND
   1    1    2 am
   2    1    5 1
   3    1    6 1
   4    2    3 2
   5    2    4 1
   6    4    8 2
   7    5   24 1
   8    5   25 1
   9    5   26 1
  10    6   27 1
  11    6   28 1
  12    6   29 1
  13    7    8 1
  14    7   11 1
  15    8    9 1
  16    9   10 1
  17    9   19 1
  18   10   11 2
  19   10   30 1
  20   11   12 1
  21   12   31 1
  22   12   32 1
  23   12   33 1
  24   13   14 1
  25   13   17 1
  26   14   15 1
  27   14   22 1
  28   14   23 1
  29   15   16 1
  30   16   17 ar
  31   16   18 ar
  32   17   21 ar
  33   18   19 ar
  34   18   34 1
  35   19   20 ar
  36   20   21 ar
  37   20   35 1
  38   21   36 1

#	End of record

