#	Name: ASD03540128
#	Creating user name:	WinNT
#	Creation time:	15. 06. 2019 20:42

#	Modifying user name:	WinNT
#	Modification time:	15. 06. 2019 20:42

#	Program:	/corina/corina34_cracker 3.40 0067  02.08.2006

@<TRIPOS>MOLECULE
ASD03540128
  56   60    0    0    0
SMALL
NO_CHARGES


@<TRIPOS>ATOM
   1 C1            -0.0134     1.4795     0.0851 C.2     
   2 C2            -0.0533     0.0053     0.1412 C.ar    
   3 C3             1.1303    -0.7268     0.0678 C.ar    
   4 C4             1.0875    -2.1174     0.1211 C.ar    
   5 C5             2.3359    -2.9003     0.0445 C.2     
   6 C6            -0.1491    -2.7725     0.2486 C.ar    
   7 C7            -1.3234    -2.0315     0.3210 C.ar    
   8 C8            -1.2793    -0.6567     0.2739 C.ar    
   9 O9             1.0266     2.0686     0.3094 O.2     
  10 N10           -1.1282     2.1727    -0.2202 N.am    
  11 O11            2.3055    -4.1081     0.1812 O.2     
  12 N12            3.5100    -2.2765    -0.1769 N.am    
  13 O13           -5.8488    -0.3938    -1.4827 O.3     
  14 C14           -6.7209     0.4219    -0.6783 C.3     
  15 O15           -5.8540     0.9417     0.3470 O.3     
  16 C16           -4.6073     0.9688    -0.2085 C.ar    
  17 C17           -4.6035     0.1475    -1.3340 C.ar    
  18 C18           -3.4538     1.6398     0.1599 C.ar    
  19 C19           -2.2957     1.4933    -0.5921 C.ar    
  20 C20           -2.2949     0.6740    -1.7128 C.ar    
  21 C21           -3.4460     0.0035    -2.0812 C.ar    
  22 O22           -0.8562     7.6761     0.1004 O.3     
  23 C23            0.5660     7.7773     0.3011 C.3     
  24 O24            0.9221     6.5051     0.8737 O.3     
  25 C25           -0.0136     5.6236     0.4144 C.ar    
  26 C26           -1.1076     6.3433    -0.0614 C.ar    
  27 C27           -0.0217     4.2403     0.3612 C.ar    
  28 C28           -1.1195     3.5726    -0.1655 C.ar    
  29 C29           -2.2083     4.2925    -0.6384 C.ar    
  30 C30           -2.2010     5.6735    -0.5856 C.ar    
  31 N31           -0.1983    -4.1595     0.3020 N.am    
  32 C32           -1.2313    -4.8192    -0.2587 C.2     
  33 O33           -2.0693    -4.2101    -0.8890 O.2     
  34 C34           -1.3448    -6.3137    -0.1022 C.3     
  35 C35            4.7495    -3.0538    -0.2530 C.3     
  36 H36            2.0774    -0.2172    -0.0306 H       
  37 H37           -2.2731    -2.5364     0.4190 H       
  38 H38           -2.1945    -0.0867     0.3354 H       
  39 H39            3.5343    -1.3130    -0.2860 H       
  40 H40           -7.1414     1.2336    -1.2720 H       
  41 H41           -7.5139    -0.1832    -0.2389 H       
  42 H42           -3.4548     2.2772     1.0318 H       
  43 H43           -1.3939     0.5603    -2.2974 H       
  44 H44           -3.4431    -0.6331    -2.9536 H       
  45 H45            1.0774     7.9258    -0.6499 H       
  46 H46            0.7985     8.5871     0.9927 H       
  47 H47            0.8254     3.6805     0.7292 H       
  48 H48           -3.0618     3.7728    -1.0480 H       
  49 H49           -3.0490     6.2315    -0.9543 H       
  50 H50            0.5108    -4.6534     0.7427 H       
  51 H51           -0.5074    -6.6816     0.4907 H       
  52 H52           -2.2807    -6.5563     0.4011 H       
  53 H53           -1.3284    -6.7842    -1.0853 H       
  54 H54            5.5886    -2.3826    -0.4360 H       
  55 H55            4.9053    -3.5822     0.6876 H       
  56 H56            4.6767    -3.7749    -1.0671 H       
@<TRIPOS>BOND
   1    1    2 1
   2    1    9 2
   3    1   10 am
   4    2    3 ar
   5    2    8 ar
   6    3    4 ar
   7    3   36 1
   8    4    5 1
   9    4    6 ar
  10    5   11 2
  11    5   12 am
  12    6    7 ar
  13    6   31 1
  14    7    8 ar
  15    7   37 1
  16    8   38 1
  17   10   19 1
  18   10   28 1
  19   12   35 1
  20   12   39 1
  21   13   14 1
  22   13   17 1
  23   14   15 1
  24   14   40 1
  25   14   41 1
  26   15   16 1
  27   16   17 ar
  28   16   18 ar
  29   17   21 ar
  30   18   19 ar
  31   18   42 1
  32   19   20 ar
  33   20   21 ar
  34   20   43 1
  35   21   44 1
  36   22   23 1
  37   22   26 1
  38   23   24 1
  39   23   45 1
  40   23   46 1
  41   24   25 1
  42   25   26 ar
  43   25   27 ar
  44   26   30 ar
  45   27   28 ar
  46   27   47 1
  47   28   29 ar
  48   29   30 ar
  49   29   48 1
  50   30   49 1
  51   31   32 am
  52   31   50 1
  53   32   33 2
  54   32   34 1
  55   34   51 1
  56   34   52 1
  57   34   53 1
  58   35   54 1
  59   35   55 1
  60   35   56 1

#	End of record

