#	Name: ASD03092904
#	Creating user name:	WinNT
#	Creation time:	15. 06. 2019 20:33

#	Modifying user name:	WinNT
#	Modification time:	15. 06. 2019 20:33

#	Program:	/corina/corina34_cracker 3.40 0067  02.08.2006

@<TRIPOS>MOLECULE
ASD03092904
  50   52    0    0    0
SMALL
NO_CHARGES


@<TRIPOS>ATOM
   1 C1            -0.0187     1.5258     0.0104 C.3     
   2 C2             0.0021    -0.0041     0.0020 C.3     
   3 O3            -1.3386    -0.4987     0.0122 O.3     
   4 C4            -1.4983    -1.8483     0.0064 C.ar    
   5 C5            -0.3876    -2.6794    -0.0028 C.ar    
   6 C6            -0.5526    -4.0509    -0.0082 C.ar    
   7 C7            -1.8235    -4.5955    -0.0047 C.ar    
   8 C8            -2.9322    -3.7693     0.0041 C.ar    
   9 C9            -2.7724    -2.3972     0.0157 C.ar    
  10 C10           -2.0007    -6.0920    -0.0110 C.3     
  11 H11           -1.0827    -6.5680     0.3338 H       
  12 C12           -2.3162    -6.5622    -1.4324 C.3     
  13 O13           -3.4527    -5.8518    -1.9279 O.3     
  14 C14           -3.8334    -6.2179    -3.2557 C.3     
  15 N15           -3.1046    -6.4569     0.8803 N.am    
  16 C16           -3.1458    -7.6848     1.4343 C.2     
  17 O17           -2.2690    -8.4878     1.1948 O.2     
  18 C18           -4.2813    -8.0601     2.3512 C.3     
  19 H19           -4.6698    -7.2535     2.9729 H       
  20 C20           -5.2772    -9.1080     1.8501 C.3     
  21 C21           -4.2722    -9.4694     2.9467 C.3     
  22 H22           -3.4449   -10.1251     2.6754 H       
  23 C23           -4.8015    -9.6362     4.3479 C.ar    
  24 C24           -6.1099    -9.2971     4.6374 C.ar    
  25 C25           -6.5954    -9.4501     5.9226 C.ar    
  26 C26           -5.7725    -9.9425     6.9182 C.ar    
  27 C27           -4.4643   -10.2824     6.6285 C.ar    
  28 C28           -3.9801   -10.1335     5.3423 C.ar    
  29 H29            1.0039     1.9031     0.0027 H       
  30 H30           -0.5459     1.8868    -0.8726 H       
  31 H31           -0.5289     1.8773     0.9072 H       
  32 H32            0.5123    -0.3556    -0.8948 H       
  33 H33            0.5293    -0.3651     0.8851 H       
  34 H34            0.6053    -2.2545    -0.0062 H       
  35 H35            0.3118    -4.6984    -0.0154 H       
  36 H36           -3.9238    -4.1971     0.0064 H       
  37 H37           -3.6386    -1.7523     0.0270 H       
  38 H38           -1.4585    -6.3707    -2.0772 H       
  39 H39           -2.5316    -7.6307    -1.4222 H       
  40 H40           -4.7031    -5.6345    -3.5582 H       
  41 H41           -3.0072    -6.0192    -3.9384 H       
  42 H42           -4.0804    -7.2792    -3.2834 H       
  43 H43           -3.8059    -5.8146     1.0718 H       
  44 H44           -6.3207    -8.9911     2.1425 H       
  45 H45           -5.1110    -9.5260     0.8572 H       
  46 H46           -6.7528    -8.9124     3.8595 H       
  47 H47           -7.6175    -9.1845     6.1489 H       
  48 H48           -6.1516   -10.0613     7.9225 H       
  49 H49           -3.8213   -10.6668     7.4064 H       
  50 H50           -2.9591   -10.4026     5.1151 H       
@<TRIPOS>BOND
   1    1    2 1
   2    1   29 1
   3    1   30 1
   4    1   31 1
   5    2    3 1
   6    2   32 1
   7    2   33 1
   8    3    4 1
   9    4    9 ar
  10    4    5 ar
  11    5    6 ar
  12    5   34 1
  13    6    7 ar
  14    6   35 1
  15    7    8 ar
  16    7   10 1
  17    8    9 ar
  18    8   36 1
  19    9   37 1
  20   10   11 1
  21   10   12 1
  22   10   15 1
  23   12   13 1
  24   12   38 1
  25   12   39 1
  26   13   14 1
  27   14   40 1
  28   14   41 1
  29   14   42 1
  30   15   16 am
  31   15   43 1
  32   16   17 2
  33   16   18 1
  34   18   19 1
  35   18   21 1
  36   18   20 1
  37   20   21 1
  38   20   44 1
  39   20   45 1
  40   21   22 1
  41   21   23 1
  42   23   28 ar
  43   23   24 ar
  44   24   25 ar
  45   24   46 1
  46   25   26 ar
  47   25   47 1
  48   26   27 ar
  49   26   48 1
  50   27   28 ar
  51   27   49 1
  52   28   50 1

#	End of record

