#	Name: ASD08070040
#	Creating user name:	WinNT
#	Creation time:	15. 06. 2019 21:14

#	Modifying user name:	WinNT
#	Modification time:	15. 06. 2019 21:14

#	Program:	/corina/corina34_cracker 3.40 0067  02.08.2006

@<TRIPOS>MOLECULE
ASD08070040
  42   43    0    0    0
SMALL
NO_CHARGES


@<TRIPOS>ATOM
   1 C1            -0.1622     1.7683    -0.0395 C.ar    
   2 C2            -0.0790     0.3530    -0.0229 C.ar    
   3 C3            -1.2525    -0.4128    -0.0030 C.ar    
   4 C4            -2.4821     0.2265     0.0002 C.ar    
   5 C5            -2.5538     1.6305    -0.0164 C.ar    
   6 C6            -1.4264     2.3863    -0.0309 C.ar    
   7 C7            -3.7251    -0.5722     0.0206 C.2     
   8 N8            -4.9230     0.0455     0.0237 N.am    
   9 O9            -3.6673    -1.7864     0.0346 O.2     
  10 C10           -6.1540    -0.7430    -0.0728 C.3     
  11 C11           -7.2796    -0.0016     0.6012 C.2     
  12 C12           -6.5013    -0.9679    -1.5458 C.3     
  13 O13           -7.0747     1.0750     1.1100 O.2     
  14 O14           -8.5099    -0.5371     0.6362 O.3     
  15 C15           -9.5453     0.2328     1.3021 C.3     
  16 C16           -7.6868    -1.9297    -1.6491 C.3     
  17 C17           -8.1026    -2.0710    -3.1147 C.3     
  18 C18           -7.2820    -3.2990    -1.0995 C.3     
  19 N19            0.9571     2.4985    -0.0576 N.ar    
  20 C20            2.1406     1.9343    -0.0604 C.ar    
  21 C21            2.2933     0.5496    -0.0446 C.ar    
  22 C22            1.1912    -0.2569    -0.0262 C.ar    
  23 H23           -1.1992    -1.4914     0.0094 H       
  24 H24           -3.5193     2.1144    -0.0137 H       
  25 H25           -1.4999     3.4637    -0.0435 H       
  26 H26           -4.9701     1.0121     0.0899 H       
  27 H27           -6.0082    -1.7057     0.4172 H       
  28 H28           -6.7647    -0.0158    -2.0065 H       
  29 H29           -5.6409    -1.3952    -2.0609 H       
  30 H30           -9.6592     1.1957     0.8040 H       
  31 H31          -10.4882    -0.3124     1.2587 H       
  32 H32           -9.2659     0.3933     2.3434 H       
  33 H33           -8.5234    -1.5386    -1.0702 H       
  34 H34           -7.2660    -2.4620    -3.6937 H       
  35 H35           -8.9471    -2.7562    -3.1883 H       
  36 H36           -8.3910    -1.0955    -3.5063 H       
  37 H37           -7.0880    -3.2183    -0.0300 H       
  38 H38           -8.0889    -4.0118    -1.2696 H       
  39 H39           -6.3808    -3.6424    -1.6074 H       
  40 H40            3.0209     2.5598    -0.0756 H       
  41 H41            3.2817     0.1144    -0.0478 H       
  42 H42            1.2905    -1.3322    -0.0135 H       
@<TRIPOS>BOND
   1    1    2 ar
   2    1   19 ar
   3    1    6 ar
   4    2    3 ar
   5    2   22 ar
   6    3    4 ar
   7    3   23 1
   8    4    5 ar
   9    4    7 1
  10    5    6 ar
  11    5   24 1
  12    6   25 1
  13    7    8 am
  14    7    9 2
  15    8   10 1
  16    8   26 1
  17   10   11 1
  18   10   12 1
  19   10   27 1
  20   11   13 2
  21   11   14 1
  22   12   16 1
  23   12   28 1
  24   12   29 1
  25   14   15 1
  26   15   30 1
  27   15   31 1
  28   15   32 1
  29   16   17 1
  30   16   18 1
  31   16   33 1
  32   17   34 1
  33   17   35 1
  34   17   36 1
  35   18   37 1
  36   18   38 1
  37   18   39 1
  38   19   20 ar
  39   20   21 ar
  40   20   40 1
  41   21   22 ar
  42   21   41 1
  43   22   42 1

#	End of record

