#	Name: ASD01915580
#	Creating user name:	WinNT
#	Creation time:	15. 06. 2019 20:05

#	Modifying user name:	WinNT
#	Modification time:	15. 06. 2019 20:05

#	Program:	/corina/corina34_cracker 3.40 0067  02.08.2006

@<TRIPOS>MOLECULE
ASD01915580
  40   43    0    0    0
SMALL
NO_CHARGES


@<TRIPOS>ATOM
   1 C1            -0.0085     1.4187     0.1026 C.2     
   2 N2             0.0293     0.0472    -0.0152 N.pl3   
   3 C3            -1.2036    -0.7383    -0.1467 C.3     
   4 C4            -2.3387    -0.0229     0.5839 C.3     
   5 N5            -2.4043     1.3988     0.2637 N.am    
   6 C6            -1.2834     2.1504     0.1428 C.2     
   7 C7             1.2863     1.8494     0.1775 C.2     
   8 C8             2.0610     0.6835     0.1106 C.2     
   9 N9             1.2449    -0.3390     0.0027 N.2     
  10 C10            3.5658     0.6157     0.1549 C.3     
  11 O11            4.0988     1.9359     0.2770 O.3     
  12 C12            5.4517     2.0526     0.3309 C.ar    
  13 O13           -1.3292     3.3638     0.0719 O.2     
  14 C14            6.0369     3.3048     0.4494 C.ar    
  15 C15            6.2496     0.9192     0.2731 C.ar    
  16 C16            7.6247     1.0404     0.3280 C.ar    
  17 C17            8.2057     2.2900     0.4403 C.ar    
  18 C18            7.4124     3.4207     0.5038 C.ar    
  19 C19           -3.6492     1.9979     0.0773 C.ar    
  20 C20           -4.2175     2.0276    -1.1935 C.ar    
  21 C21           -5.4555     2.6261    -1.3633 C.ar    
  22 C22           -6.0830     3.1751    -0.2536 C.ar    
  23 C23           -5.4602     3.1094     0.9772 C.ar    
  24 N24           -4.2831     2.5288     1.1107 N.ar    
  25 F25           -3.5707     1.4809    -2.2461 F       
  26 H26           -1.4583    -0.8420    -1.2015 H       
  27 H27           -1.0545    -1.7255     0.2907 H       
  28 H28           -3.2843    -0.4900     0.3086 H       
  29 H29           -2.1922    -0.1356     1.6582 H       
  30 H30            1.6364     2.8671     0.2681 H       
  31 H31            3.8775     0.0174     1.0110 H       
  32 H32            3.9360     0.1579    -0.7625 H       
  33 H33            5.4177     4.1883     0.4986 H       
  34 H34            5.7962    -0.0571     0.1857 H       
  35 H35            8.2463     0.1584     0.2834 H       
  36 H36            9.2809     2.3827     0.4831 H       
  37 H37            7.8687     4.3957     0.5912 H       
  38 H38           -5.9214     2.6649    -2.3369 H       
  39 H39           -7.0483     3.6493    -0.3518 H       
  40 H40           -5.9453     3.5354     1.8430 H       
@<TRIPOS>BOND
   1    1    2 1
   2    1    7 2
   3    1    6 1
   4    2    3 1
   5    2    9 1
   6    3    4 1
   7    3   26 1
   8    3   27 1
   9    4    5 1
  10    4   28 1
  11    4   29 1
  12    5    6 am
  13    5   19 1
  14    6   13 2
  15    7    8 1
  16    7   30 1
  17    8    9 2
  18    8   10 1
  19   10   11 1
  20   10   31 1
  21   10   32 1
  22   11   12 1
  23   12   14 ar
  24   12   15 ar
  25   14   18 ar
  26   14   33 1
  27   15   16 ar
  28   15   34 1
  29   16   17 ar
  30   16   35 1
  31   17   18 ar
  32   17   36 1
  33   18   37 1
  34   19   20 ar
  35   19   24 ar
  36   20   21 ar
  37   20   25 1
  38   21   22 ar
  39   21   38 1
  40   22   23 ar
  41   22   39 1
  42   23   24 ar
  43   23   40 1

#	End of record

