#	Name: ASD01680079
#	Creating user name:	WinNT
#	Creation time:	15. 06. 2019 19:22

#	Modifying user name:	WinNT
#	Modification time:	15. 06. 2019 19:22

#	Program:	/corina/corina34_cracker 3.40 0067  02.08.2006

@<TRIPOS>MOLECULE
ASD01680079
  72   74    0    0    0
SMALL
NO_CHARGES


@<TRIPOS>ATOM
   1 C1             2.3062     2.2250     1.8933 C.2     
   2 C2             2.3967     0.7242     1.9957 C.3     
   3 C3             1.1761     0.0926     1.3233 C.3     
   4 O4             3.1714     2.8447     1.3212 O.2     
   5 O5             1.2617     2.8728     2.4327 O.3     
   6 N6             3.6160     0.2617     1.3281 N.am    
   7 S7             4.9965     0.0095     2.2071 S.o2    
   8 O8             5.9752    -0.4614     1.2908 O.2     
   9 O9             5.1777     1.1673     3.0107 O.2     
  10 C10            4.6728    -1.3205     3.3165 C.ar    
  11 C11            4.3575    -1.0583     4.6366 C.ar    
  12 C12            4.1035    -2.1018     5.5070 C.ar    
  13 C13            4.1645    -3.4075     5.0571 C.ar    
  14 C14            4.4789    -3.6697     3.7368 C.ar    
  15 C15            4.7286    -2.6260     2.8654 C.ar    
  16 C16            5.0663    -2.9117     1.4248 C.3     
  17 C17            3.8886    -4.5451     6.0063 C.3     
  18 C18            4.2910     0.3651     5.1270 C.3     
  19 N19            1.3217    -1.3651     1.3172 N.am    
  20 C20            0.3600    -2.1361     0.7720 C.2     
  21 O21           -0.6259    -1.6231     0.2865 O.2     
  22 C22            0.5098    -3.6356     0.7656 C.3     
  23 O23           -0.6302    -4.2255     0.1376 O.3     
  24 N24           -1.6806    -7.6207     0.8493 N.3     
  25 C25           -1.2738    -6.2728     1.3225 C.3     
  26 C26           -0.5881    -5.6527     0.0791 C.3     
  27 C27           -1.4521    -6.1781    -1.0902 C.3     
  28 C28           -2.1515    -7.4351    -0.5404 C.3     
  29 C29           -1.7742    -8.6533    -1.3857 C.3     
  30 N30           -2.4107    -9.8498    -0.8293 N.pl3   
  31 C31           -2.1070   -11.1033    -1.3475 C.ar    
  32 C32           -1.1975   -11.2146    -2.3946 C.ar    
  33 C33           -0.9045   -12.4680    -2.9006 C.ar    
  34 C34           -1.5332   -13.5724    -2.3404 C.ar    
  35 C35           -2.4251   -13.3888    -1.3032 C.ar    
  36 N36           -2.6816   -12.1812    -0.8368 N.ar    
  37 C37           -2.7447    -8.1768     1.6958 C.3     
  38 H38            2.4246     0.4327     3.0457 H       
  39 H39            0.2760     0.3655     1.8742 H       
  40 H40            1.0983     0.4543     0.2980 H       
  41 H41            1.2474     3.8354     2.3416 H       
  42 H42            3.6146     0.1033     0.3711 H       
  43 H43            3.8579    -1.8969     6.5385 H       
  44 H44            4.5268    -4.6898     3.3854 H       
  45 H45            6.1493    -2.9287     1.3020 H       
  46 H46            4.6531    -3.8791     1.1396 H       
  47 H47            4.6410    -2.1337     0.7907 H       
  48 H48            2.8247    -4.7816     5.9904 H       
  49 H49            4.4601    -5.4210     5.6994 H       
  50 H50            4.1814    -4.2554     7.0154 H       
  51 H51            3.3999     0.8468     4.7246 H       
  52 H52            4.2477     0.3725     6.2161 H       
  53 H53            5.1775     0.9056     4.7950 H       
  54 H54            2.1102    -1.7754     1.7054 H       
  55 H55            1.4099    -3.9085     0.2148 H       
  56 H56            0.5876    -3.9974     1.7909 H       
  57 H57           -2.1462    -5.6874     1.6127 H       
  58 H58           -0.5696    -6.3522     2.1506 H       
  59 H59            0.4401    -6.0035    -0.0094 H       
  60 H60           -2.1905    -5.4308    -1.3805 H       
  61 H61           -0.8210    -6.4376    -1.9402 H       
  62 H62           -3.2322    -7.2931    -0.5505 H       
  63 H63           -2.1144    -8.5039    -2.4104 H       
  64 H64           -0.6917    -8.7803    -1.3771 H       
  65 H65           -3.0442    -9.7672    -0.0994 H       
  66 H66           -0.7270   -10.3343    -2.8069 H       
  67 H67           -0.2029   -12.5852    -3.7132 H       
  68 H68           -1.3265   -14.5649    -2.7129 H       
  69 H69           -2.9162   -14.2450    -0.8647 H       
  70 H70           -3.6642    -7.6122     1.5414 H       
  71 H71           -2.9108    -9.2211     1.4315 H       
  72 H72           -2.4486    -8.1097     2.7427 H       
@<TRIPOS>BOND
   1    1    2 1
   2    1    4 2
   3    1    5 1
   4    2    3 1
   5    2    6 1
   6    2   38 1
   7    3   19 1
   8    3   39 1
   9    3   40 1
  10    5   41 1
  11    6    7 am
  12    6   42 1
  13    7    8 2
  14    7    9 2
  15    7   10 1
  16   10   11 ar
  17   10   15 ar
  18   11   12 ar
  19   11   18 1
  20   12   13 ar
  21   12   43 1
  22   13   14 ar
  23   13   17 1
  24   14   15 ar
  25   14   44 1
  26   15   16 1
  27   16   45 1
  28   16   46 1
  29   16   47 1
  30   17   48 1
  31   17   49 1
  32   17   50 1
  33   18   51 1
  34   18   52 1
  35   18   53 1
  36   19   20 am
  37   19   54 1
  38   20   21 2
  39   20   22 1
  40   22   23 1
  41   22   55 1
  42   22   56 1
  43   23   26 1
  44   24   25 1
  45   24   28 1
  46   24   37 1
  47   25   26 1
  48   25   57 1
  49   25   58 1
  50   26   27 1
  51   26   59 1
  52   27   28 1
  53   27   60 1
  54   27   61 1
  55   28   29 1
  56   28   62 1
  57   29   30 1
  58   29   63 1
  59   29   64 1
  60   30   31 1
  61   30   65 1
  62   31   32 ar
  63   31   36 ar
  64   32   33 ar
  65   32   66 1
  66   33   34 ar
  67   33   67 1
  68   34   35 ar
  69   34   68 1
  70   35   36 ar
  71   35   69 1
  72   37   70 1
  73   37   71 1
  74   37   72 1

#	End of record

