#	Name: ASD01815631
#	Creating user name:	WinNT
#	Creation time:	15. 06. 2019 19:33

#	Modifying user name:	WinNT
#	Modification time:	15. 06. 2019 19:33

#	Program:	/corina/corina34_cracker 3.40 0067  02.08.2006

@<TRIPOS>MOLECULE
ASD01815631
  35   37    0    0    0
SMALL
NO_CHARGES


@<TRIPOS>ATOM
   1 C1             0.0718     1.4684     0.1221 C.ar    
   2 C2             0.0573     0.0811     0.1163 C.ar    
   3 C3             1.2350    -0.6354     0.0636 C.ar    
   4 C4             2.4563     0.0360     0.0149 C.ar    
   5 C5             2.4662     1.4408     0.0204 C.ar    
   6 C6             1.2670     2.1513     0.0745 C.ar    
   7 N7             3.6408    -0.6676    -0.0377 N.pl3   
   8 C8             4.8380    -0.0702    -0.0848 C.2     
   9 C9             4.9751     1.3035    -0.0847 C.2     
  10 C10            3.7645     2.1387    -0.0315 C.2     
  11 O11            3.8319     3.3554    -0.0296 O.2     
  12 C12            6.3076     1.9214    -0.1370 C.2     
  13 O13            7.3007     1.2218    -0.1807 O.2     
  14 O14            6.4284     3.2641    -0.1363 O.3     
  15 C15            3.5871    -2.1316    -0.0416 C.3     
  16 C16            3.4443    -2.6253    -1.4583 C.ar    
  17 C17            4.5332    -2.5732    -2.3305 C.ar    
  18 C18            4.3922    -3.0332    -3.6415 C.ar    
  19 C19            3.1798    -3.5355    -4.0661 C.ar    
  20 C20            2.1045    -3.5837    -3.1964 C.ar    
  21 C21            2.2387    -3.1350    -1.8947 C.ar    
  22 F22            1.2052    -1.9861     0.0595 F       
  23 C23            5.7888    -2.0500    -1.8830 C.1     
  24 N24            6.7849    -1.6349    -1.5279 N.1     
  25 H25           -0.8586     2.0154     0.1596 H       
  26 H26           -0.8860    -0.4435     0.1539 H       
  27 H27            1.2757     3.2313     0.0784 H       
  28 H28            5.7262    -0.6834    -0.1238 H       
  29 H29            7.3251     3.6242    -0.1717 H       
  30 H30            4.5047    -2.5300     0.3912 H       
  31 H31            2.7328    -2.4654     0.5473 H       
  32 H32            5.2304    -2.9954    -4.3215 H       
  33 H33            3.0693    -3.8916    -5.0797 H       
  34 H34            1.1573    -3.9777    -3.5341 H       
  35 H35            1.3955    -3.1755    -1.2211 H       
@<TRIPOS>BOND
   1    1    2 ar
   2    1    6 ar
   3    1   25 1
   4    2    3 ar
   5    2   26 1
   6    3    4 ar
   7    3   22 1
   8    4    5 ar
   9    4    7 1
  10    5    6 ar
  11    5   10 1
  12    6   27 1
  13    7    8 1
  14    7   15 1
  15    8    9 2
  16    8   28 1
  17    9   10 1
  18    9   12 1
  19   10   11 2
  20   12   13 2
  21   12   14 1
  22   14   29 1
  23   15   16 1
  24   15   30 1
  25   15   31 1
  26   16   17 ar
  27   16   21 ar
  28   17   18 ar
  29   17   23 1
  30   18   19 ar
  31   18   32 1
  32   19   20 ar
  33   19   33 1
  34   20   21 ar
  35   20   34 1
  36   21   35 1
  37   23   24 3

#	End of record

