#	Name: ASD06020037
#	Creating user name:	WinNT
#	Creation time:	15. 06. 2019 21:04

#	Modifying user name:	WinNT
#	Modification time:	15. 06. 2019 21:04

#	Program:	/corina/corina34_cracker 3.40 0067  02.08.2006

@<TRIPOS>MOLECULE
ASD06020037
  36   39    0    0    0
SMALL
NO_CHARGES


@<TRIPOS>ATOM
   1 C1             0.0070    -0.0032     0.0570 C.1     
   2 C2            -0.0132     1.4287     0.0548 C.ar    
   3 C3             1.1872     2.1441     0.0334 C.ar    
   4 C4             1.1690     3.5214     0.0316 C.ar    
   5 C5            -0.0506     4.2046     0.0508 C.ar    
   6 C6            -1.2521     3.4890     0.0717 C.ar    
   7 C7            -1.2326     2.1097     0.0681 C.ar    
   8 N8             0.0230    -1.1391     0.0588 N.1     
   9 F9            -2.4312     4.1482     0.0902 F       
  10 Cl10           2.6607     4.4090     0.0062 Cl      
  11 C11           -0.8859     9.4881     0.0573 C.ar    
  12 C12           -0.5461     8.1309     0.0543 C.ar    
  13 C13            0.8028     7.7572     0.0327 C.ar    
  14 C14            1.7614     8.8024     0.0154 C.ar    
  15 C15            1.3434    10.0955     0.0203 C.ar    
  16 N16            0.0582    10.4128     0.0400 N.ar    
  17 S17           -1.5259     6.6689     0.0720 S.3     
  18 C18           -0.0702     5.6817     0.0494 C.2     
  19 N19            0.9807     6.4359     0.0313 N.2     
  20 N20           -2.2254     9.8664     0.0729 N.pl3   
  21 C21           -1.9416    13.4028     0.4992 C.ar    
  22 N22           -1.6266    12.1283     0.3894 N.ar    
  23 C23           -2.5666    11.2067     0.1879 C.ar    
  24 C24           -3.8958    11.6073     0.0938 C.ar    
  25 C25           -4.1858    12.9629     0.2154 C.ar    
  26 N26           -3.1878    13.8218     0.4159 N.ar    
  27 N27           -5.4942    13.4128     0.1295 N.pl3   
  28 H28            2.1296     1.6167     0.0186 H       
  29 H29           -2.1601     1.5564     0.0801 H       
  30 H30            2.8165     8.5723    -0.0012 H       
  31 H31            2.0794    10.8857     0.0070 H       
  32 H32           -2.9203     9.1933     0.0034 H       
  33 H33           -1.1559    14.1245     0.6669 H       
  34 H34           -4.6820    10.8851    -0.0696 H       
  35 H35           -6.2157    12.7810    -0.0164 H       
  36 H36           -5.6883    14.3593     0.2152 H       
@<TRIPOS>BOND
   1    1    2 1
   2    1    8 3
   3    2    3 ar
   4    2    7 ar
   5    3    4 ar
   6    3   28 1
   7    4    5 ar
   8    4   10 1
   9    5    6 ar
  10    5   18 1
  11    6    7 ar
  12    6    9 1
  13    7   29 1
  14   11   12 ar
  15   11   16 ar
  16   11   20 1
  17   12   13 ar
  18   12   17 1
  19   13   14 ar
  20   13   19 1
  21   14   15 ar
  22   14   30 1
  23   15   16 ar
  24   15   31 1
  25   17   18 1
  26   18   19 2
  27   20   23 1
  28   20   32 1
  29   21   22 ar
  30   21   26 ar
  31   21   33 1
  32   22   23 ar
  33   23   24 ar
  34   24   25 ar
  35   24   34 1
  36   25   26 ar
  37   25   27 1
  38   27   35 1
  39   27   36 1

#	End of record

