#	Name: ASD01816751
#	Creating user name:	WinNT
#	Creation time:	15. 06. 2019 19:35

#	Modifying user name:	WinNT
#	Modification time:	15. 06. 2019 19:35

#	Program:	/corina/corina34_cracker 3.40 0067  02.08.2006

@<TRIPOS>MOLECULE
ASD01816751
  55   59    0    0    0
SMALL
NO_CHARGES


@<TRIPOS>ATOM
   1 C1            -0.0168     1.3960     0.0035 C.2     
   2 C2             0.0025    -0.0053    -0.0099 C.2     
   3 C3             1.1990    -0.6603    -0.0270 C.2     
   4 C4             2.3922     0.0814    -0.0308 C.2     
   5 N5             2.3439     1.4491    -0.0165 N.am    
   6 C6             1.1420     2.0927    -0.0005 C.2     
   7 C7             3.6231    -0.5889    -0.0482 C.2     
   8 C8             4.7881     0.1225    -0.0517 C.2     
   9 C9             4.7343     1.5280    -0.0381 C.2     
  10 C10            3.4813     2.1731    -0.0198 C.2     
  11 C11            3.6603    -2.0954    -0.0626 C.3     
  12 O12            3.4256     3.3913    -0.0079 O.2     
  13 C13            5.9709     2.3151    -0.0410 C.2     
  14 N14            7.1645     1.6953     0.0470 N.am    
  15 O15            5.9199     3.5284    -0.1229 O.2     
  16 N16            3.7806    -2.5690    -1.4480 N.3     
  17 C17            4.0574    -4.0117    -1.4892 C.3     
  18 C18            4.0963    -4.4795    -2.9459 C.3     
  19 N19            5.1290    -3.7271    -3.6720 N.3     
  20 C20            4.8521    -2.2844    -3.6308 C.3     
  21 C21            4.8132    -1.8166    -2.1740 C.3     
  22 C22            5.2429    -4.1758    -4.9846 C.ar    
  23 C23            6.1697    -3.5888    -5.8410 C.ar    
  24 C24            6.2850    -4.0302    -7.1397 C.ar    
  25 C25            5.4701    -5.0696    -7.5981 C.ar    
  26 C26            4.5405    -5.6573    -6.7349 C.ar    
  27 C27            4.4338    -5.2143    -5.4360 C.ar    
  28 C28            8.3368     2.4288    -0.0634 C.2     
  29 N29            9.5616     1.9571     0.0023 N.2     
  30 N30            8.4338     3.7630    -0.2650 N.pl3   
  31 N31            9.8132     4.0313    -0.3056 N.2     
  32 N32           10.4170     2.9045    -0.1391 N.2     
  33 C33            5.5870    -5.5310    -8.9487 C.1     
  34 N34            5.6798    -5.8970   -10.0201 N.1     
  35 H35           -0.9605     1.9211     0.0126 H       
  36 H36           -0.9228    -0.5623    -0.0064 H       
  37 H37            1.2288    -1.7398    -0.0371 H       
  38 H38            1.1152     3.1723     0.0106 H       
  39 H39            5.7398    -0.3878    -0.0643 H       
  40 H40            4.5162    -2.4433     0.5158 H       
  41 H41            2.7422    -2.4858     0.3764 H       
  42 H42            7.2038     0.7364     0.1876 H       
  43 H43            5.0196    -4.2109    -1.0174 H       
  44 H44            3.2726    -4.5480    -0.9559 H       
  45 H45            4.3302    -5.5436    -2.9800 H       
  46 H46            3.1256    -4.3052    -3.4099 H       
  47 H47            5.6370    -1.7481    -4.1641 H       
  48 H48            3.8899    -2.0851    -4.1025 H       
  49 H49            4.5793    -0.7525    -2.1400 H       
  50 H50            5.7840    -1.9909    -1.7100 H       
  51 H51            6.7989    -2.7859    -5.4863 H       
  52 H52            7.0039    -3.5737    -7.8040 H       
  53 H53            3.9092    -6.4603    -7.0859 H       
  54 H54            3.7161    -5.6681    -4.7686 H       
  55 H55            7.7072     4.3984    -0.3608 H       
@<TRIPOS>BOND
   1    1    2 1
   2    1    6 2
   3    1   35 1
   4    2    3 2
   5    2   36 1
   6    3    4 1
   7    3   37 1
   8    4    5 1
   9    4    7 2
  10    5    6 1
  11    5   10 am
  12    6   38 1
  13    7    8 1
  14    7   11 1
  15    8    9 2
  16    8   39 1
  17    9   10 1
  18    9   13 1
  19   10   12 2
  20   11   16 1
  21   11   40 1
  22   11   41 1
  23   13   15 2
  24   13   14 am
  25   14   28 1
  26   14   42 1
  27   16   17 1
  28   16   21 1
  29   17   18 1
  30   17   43 1
  31   17   44 1
  32   18   19 1
  33   18   45 1
  34   18   46 1
  35   19   20 1
  36   19   22 1
  37   20   21 1
  38   20   47 1
  39   20   48 1
  40   21   49 1
  41   21   50 1
  42   22   23 ar
  43   22   27 ar
  44   23   24 ar
  45   23   51 1
  46   24   25 ar
  47   24   52 1
  48   25   26 ar
  49   25   33 1
  50   26   27 ar
  51   26   53 1
  52   27   54 1
  53   28   29 2
  54   28   30 1
  55   29   32 1
  56   30   31 1
  57   30   55 1
  58   31   32 2
  59   33   34 3

#	End of record

