#	Name: ASD01948192
#	Creating user name:	WinNT
#	Creation time:	15. 06. 2019 20:13

#	Modifying user name:	WinNT
#	Modification time:	15. 06. 2019 20:13

#	Program:	/corina/corina34_cracker 3.40 0067  02.08.2006

@<TRIPOS>MOLECULE
ASD01948192
  50   53    0    0    0
SMALL
NO_CHARGES


@<TRIPOS>ATOM
   1 C1            -1.0800     0.1719     2.6977 C.ar    
   2 C2            -1.2217     0.6628     4.0053 C.ar    
   3 C3            -2.1253     1.6927     4.2774 C.ar    
   4 C4            -2.8812     2.2286     3.2542 C.ar    
   5 C5            -2.7450     1.7449     1.9546 C.ar    
   6 C6            -1.8516     0.7180     1.6748 C.ar    
   7 F7            -3.7561     3.2248     3.5138 F       
   8 O8            -0.1504    -0.8060     2.7352 O.3     
   9 C9             0.3157    -0.9758     3.9855 C.2     
  10 C10           -0.2853    -0.1195     4.8222 C.2     
  11 F11           -2.2592     2.1622     5.5371 F       
  12 N12           -1.7213     0.2374     0.3624 N.am    
  13 N13           -3.5183     2.2954     0.9222 N.pl3   
  14 C14           -4.6817     1.6464     0.4978 C.ar    
  15 C15           -5.9208     2.2581     0.6614 C.ar    
  16 C16           -4.6029     0.3926    -0.0930 C.ar    
  17 C17           -5.7543    -0.2463    -0.5119 C.ar    
  18 C18           -6.9852     0.3613    -0.3439 C.ar    
  19 C19           -7.0685     1.6132     0.2401 C.ar    
  20 I20           -8.7270    -0.6120    -0.9824 I       
  21 F21           -6.0020     3.4802     1.2316 F       
  22 C22           -1.2920    -2.4467     0.7412 C.3     
  23 C23           -0.3964    -3.6846     0.6605 C.3     
  24 C24            1.0652    -3.2691     0.8389 C.3     
  25 O25            1.2610    -2.7732     2.1648 O.3     
  26 C26            1.9715    -4.4800     0.6084 C.3     
  27 O27            3.3390    -4.0692     0.6648 O.3     
  28 C28           -2.8029    -2.6593     0.6276 C.3     
  29 C29           -2.1807    -2.2971     1.9776 C.3     
  30 S30           -0.6023    -0.9335     0.0166 S.o2    
  31 O31           -0.6057    -1.0135    -1.4021 O.2     
  32 O32            0.5606    -0.5268     0.7247 O.2     
  33 H33            1.0659    -1.6976     4.2730 H       
  34 H34           -0.1150    -0.0236     5.8843 H       
  35 H35           -2.2866     0.5910    -0.3421 H       
  36 H36           -3.2460     3.1265     0.5025 H       
  37 H37           -3.6424    -0.0830    -0.2255 H       
  38 H38           -5.6929    -1.2217    -0.9715 H       
  39 H39           -8.0313     2.0850     0.3701 H       
  40 H40           -0.6736    -4.3856     1.4478 H       
  41 H41           -0.5225    -4.1615    -0.3115 H       
  42 H42            1.3116    -2.4886     0.1190 H       
  43 H43            1.0603    -3.4160     2.8587 H       
  44 H44            1.7841    -5.2263     1.3804 H       
  45 H45            1.7614    -4.9099    -0.3710 H       
  46 H46            3.9715    -4.7875     0.5268 H       
  47 H47           -3.3826    -1.8897     0.1179 H       
  48 H48           -3.1589    -3.6810     0.4955 H       
  49 H49           -2.1272    -3.0805     2.7336 H       
  50 H50           -2.3509    -1.2892     2.3561 H       
@<TRIPOS>BOND
   1    1    2 ar
   2    1    8 1
   3    1    6 ar
   4    2    3 ar
   5    2   10 1
   6    3    4 ar
   7    3   11 1
   8    4    5 ar
   9    4    7 1
  10    5    6 ar
  11    5   13 1
  12    6   12 1
  13    8    9 1
  14    9   10 2
  15    9   33 1
  16   10   34 1
  17   12   30 am
  18   12   35 1
  19   13   14 1
  20   13   36 1
  21   14   15 ar
  22   14   16 ar
  23   15   21 1
  24   15   19 ar
  25   16   17 ar
  26   16   37 1
  27   17   18 ar
  28   17   38 1
  29   18   19 ar
  30   18   20 1
  31   19   39 1
  32   22   23 1
  33   22   28 1
  34   22   30 1
  35   22   29 1
  36   23   24 1
  37   23   40 1
  38   23   41 1
  39   24   25 1
  40   24   26 1
  41   24   42 1
  42   25   43 1
  43   26   27 1
  44   26   44 1
  45   26   45 1
  46   27   46 1
  47   28   29 1
  48   28   47 1
  49   28   48 1
  50   29   49 1
  51   29   50 1
  52   30   31 2
  53   30   32 2

#	End of record

