#	Name: ASD03731845
#	Creating user name:	WinNT
#	Creation time:	15. 06. 2019 20:46

#	Modifying user name:	WinNT
#	Modification time:	15. 06. 2019 20:46

#	Program:	/corina/corina34_cracker 3.40 0067  02.08.2006

@<TRIPOS>MOLECULE
ASD03731845
  39   40    0    0    0
SMALL
NO_CHARGES


@<TRIPOS>ATOM
   1 C1             0.7581     1.4154    -0.4019 C.2     
   2 C2             0.5737    -0.0456    -0.3015 C.ar    
   3 C3             1.5327    -0.9110    -0.8345 C.ar    
   4 C4             1.3574    -2.2733    -0.7384 C.ar    
   5 C5             0.2278    -2.7882    -0.1126 C.ar    
   6 C6            -0.7286    -1.9305     0.4189 C.ar    
   7 C7            -0.5575    -0.5670     0.3319 C.ar    
   8 O8             1.7454     1.8674    -0.9489 O.2     
   9 N9            -0.1707     2.2485     0.1078 N.am    
  10 O10            0.0581    -4.1313    -0.0206 O.3     
  11 C11            0.5843    -4.7685     1.0581 C.ar    
  12 C12            1.1758    -4.0362     2.0775 C.ar    
  13 C13            1.7101    -4.6864     3.1730 C.ar    
  14 C14            1.6558    -6.0657     3.2542 C.ar    
  15 C15            1.0672    -6.7977     2.2395 C.ar    
  16 C16            0.5260    -6.1521     1.1448 C.ar    
  17 C17            2.2394    -6.7723     4.4505 C.3     
  18 S18            0.0362     3.8876    -0.0049 S.o2    
  19 O19           -1.1026     4.4303     0.6493 O.2     
  20 O20            1.3460     4.1109     0.4987 O.2     
  21 C21           -0.0285     4.2307    -1.7849 C.3     
  22 C22            0.1526     5.7313    -2.0220 C.3     
  23 H23            2.4102    -0.5118    -1.3215 H       
  24 H24            2.0981    -2.9428    -1.1501 H       
  25 H25           -1.6050    -2.3342     0.9041 H       
  26 H26           -1.2989     0.0987     0.7487 H       
  27 H27           -0.9603     1.8879     0.5407 H       
  28 H28            1.2189    -2.9589     2.0144 H       
  29 H29            2.1709    -4.1170     3.9665 H       
  30 H30            1.0267    -7.8750     2.3050 H       
  31 H31            0.0621    -6.7241     0.3548 H       
  32 H32            1.4737    -6.8787     5.2189 H       
  33 H33            2.5944    -7.7587     4.1523 H       
  34 H34            3.0722    -6.1905     4.8455 H       
  35 H35            0.7684     3.6844    -2.2895 H       
  36 H36           -0.9934     3.9142    -2.1812 H       
  37 H37           -0.6443     6.2777    -1.5175 H       
  38 H38            1.1175     6.0479    -1.6258 H       
  39 H39            0.1138     5.9375    -3.0916 H       
@<TRIPOS>BOND
   1    1    2 1
   2    1    8 2
   3    1    9 am
   4    2    3 ar
   5    2    7 ar
   6    3    4 ar
   7    3   23 1
   8    4    5 ar
   9    4   24 1
  10    5    6 ar
  11    5   10 1
  12    6    7 ar
  13    6   25 1
  14    7   26 1
  15    9   18 am
  16    9   27 1
  17   10   11 1
  18   11   12 ar
  19   11   16 ar
  20   12   13 ar
  21   12   28 1
  22   13   14 ar
  23   13   29 1
  24   14   15 ar
  25   14   17 1
  26   15   16 ar
  27   15   30 1
  28   16   31 1
  29   17   32 1
  30   17   33 1
  31   17   34 1
  32   18   19 2
  33   18   20 2
  34   18   21 1
  35   21   22 1
  36   21   35 1
  37   21   36 1
  38   22   37 1
  39   22   38 1
  40   22   39 1

#	End of record

