#	Name: ASD02508484
#	Creating user name:	WinNT
#	Creation time:	15. 06. 2019 20:24

#	Modifying user name:	WinNT
#	Modification time:	15. 06. 2019 20:24

#	Program:	/corina/corina34_cracker 3.40 0067  02.08.2006

@<TRIPOS>MOLECULE
ASD02508484
  36   38    0    0    0
SMALL
NO_CHARGES


@<TRIPOS>ATOM
   1 C1            -0.0666     1.3103    -0.1384 C.2     
   2 C2             0.0559    -0.0396     0.2102 C.2     
   3 C3             1.3739    -0.3419     0.2521 C.2     
   4 N4             2.0643     0.7852    -0.0611 N.pl3   
   5 N5             1.1337     1.8046    -0.3009 N.2     
   6 C6             3.4557     0.9066    -0.1309 C.ar    
   7 C7             4.0309     2.1636    -0.2816 C.ar    
   8 N8             4.2129    -0.1750    -0.0476 N.ar    
   9 C9             5.5286    -0.1055    -0.1089 C.ar    
  10 C10            6.1677     1.1092    -0.2630 C.ar    
  11 C11            5.4104     2.2691    -0.3494 C.ar    
  12 S12            2.0691    -1.9130     0.6433 S.o2    
  13 N13            2.1531    -2.7767    -0.7671 N.am    
  14 C14            2.9899    -2.3478    -1.7999 C.ar    
  15 C15            3.0201    -1.0064    -2.1596 C.ar    
  16 O16            3.4101    -1.6695     1.0452 O.2     
  17 O17            1.1199    -2.5783     1.4653 O.2     
  18 C18            3.7979    -3.2607    -2.4656 C.ar    
  19 C19            4.6249    -2.8338    -3.4863 C.ar    
  20 C20            4.6498    -1.4991    -3.8458 C.ar    
  21 C21            3.8496    -0.5854    -3.1816 C.ar    
  22 Cl22           3.8842     1.0896    -3.6365 Cl      
  23 Cl23           3.0339     3.5810    -0.3840 Cl      
  24 C24            7.6717     1.1752    -0.3307 C.3     
  25 F25            8.2007    -0.1149    -0.2157 F       
  26 F26            8.0596     1.7308    -1.5546 F       
  27 F27            8.1511     1.9707     0.7155 F       
  28 H28           -0.9941     1.8506    -0.2575 H       
  29 H29           -0.7584    -0.7200     0.4107 H       
  30 H30            6.1140    -1.0103    -0.0372 H       
  31 H31            5.8856     3.2314    -0.4701 H       
  32 H32            1.6212    -3.5805    -0.8761 H       
  33 H33            2.3958    -0.2935    -1.6415 H       
  34 H34            3.7798    -4.3035    -2.1851 H       
  35 H35            5.2531    -3.5435    -4.0039 H       
  36 H36            5.2978    -1.1680    -4.6438 H       
@<TRIPOS>BOND
   1    1    2 1
   2    1    5 2
   3    1   28 1
   4    2    3 2
   5    2   29 1
   6    3    4 1
   7    3   12 1
   8    4    5 1
   9    4    6 1
  10    6    7 ar
  11    6    8 ar
  12    7   23 1
  13    7   11 ar
  14    8    9 ar
  15    9   10 ar
  16    9   30 1
  17   10   11 ar
  18   10   24 1
  19   11   31 1
  20   12   13 am
  21   12   16 2
  22   12   17 2
  23   13   14 1
  24   13   32 1
  25   14   18 ar
  26   14   15 ar
  27   15   21 ar
  28   15   33 1
  29   18   19 ar
  30   18   34 1
  31   19   20 ar
  32   19   35 1
  33   20   21 ar
  34   20   36 1
  35   21   22 1
  36   24   25 1
  37   24   26 1
  38   24   27 1

#	End of record

