#	Name: ASD06590030
#	Creating user name:	WinNT
#	Creation time:	15. 06. 2019 21:06

#	Modifying user name:	WinNT
#	Modification time:	15. 06. 2019 21:06

#	Program:	/corina/corina34_cracker 3.40 0067  02.08.2006

@<TRIPOS>MOLECULE
ASD06590030
 331  335    0    0    0
SMALL
NO_CHARGES


@<TRIPOS>ATOM
   1 C1            -5.1908     7.0540     3.8800 C.2     
   2 O2            -4.6400     6.1445     3.2966 O.2     
   3 N3            -3.0142     7.8027     4.6490 N.am    
   4 C4            -4.3872     8.2310     4.3701 C.3     
   5 C5            -4.3734     9.3214     3.2970 C.3     
   6 C6            -5.7828     9.8937     3.1332 C.3     
   7 C7            -6.1896    10.6222     4.4157 C.3     
   8 C8            -5.8011    10.8765     1.9607 C.3     
   9 C9            -8.7426     6.3777     3.3413 C.2     
  10 O10           -9.0616     7.5061     3.6508 O.2     
  11 N11           -6.5222     7.0148     4.0852 N.am    
  12 C12           -7.3181     5.9208     3.5230 C.3     
  13 C13           -7.2840     4.7237     4.4753 C.3     
  14 C14           -5.8773     4.1901     4.5613 C.ar    
  15 C15           -5.0097     4.6824     5.5187 C.ar    
  16 C16           -3.7195     4.1952     5.5993 C.ar    
  17 C17           -3.2948     3.2108     4.7188 C.ar    
  18 O18           -2.0262     2.7296     4.7964 O.3     
  19 C19           -4.1674     2.7182     3.7594 C.ar    
  20 C20           -5.4581     3.2050     3.6863 C.ar    
  21 C21          -11.9647     4.7817     2.6828 C.2     
  22 O22          -11.5072     3.6686     2.8332 O.2     
  23 N23           -9.6620     5.5324     2.8347 N.am    
  24 C24          -11.0468     5.9766     2.6580 C.3     
  25 C25          -11.1839     6.6973     1.3154 C.3     
  26 C26          -10.3475     7.9783     1.3364 C.3     
  27 C27          -10.3841     8.6341    -0.0454 C.3     
  28 C28          -10.9207     8.9447     2.3749 C.3     
  29 C29          -15.4483     4.1085     1.8028 C.2     
  30 O30          -15.5886     5.1995     1.2922 O.2     
  31 N31          -13.2940     4.9500     2.5377 N.am    
  32 C32          -14.1864     3.7883     2.5618 C.3     
  33 C33          -14.5362     3.4438     4.0109 C.3     
  34 C34          -13.2910     3.0051     4.7376 C.2     
  35 C35          -12.8130     3.5351     5.8796 C.2     
  36 N36          -11.6726     2.8446     6.1898 N.pl3   
  37 C37          -11.4933     1.9160     5.2258 C.2     
  38 N38          -12.4677     2.0146     4.3634 N.2     
  39 C39          -18.7713     2.6247     1.4578 C.2     
  40 O40          -18.5673     1.8242     2.3459 O.2     
  41 N41          -16.4211     3.1823     1.6916 N.am    
  42 C42          -17.6479     3.4935     0.9538 C.3     
  43 C43          -17.4277     3.2286    -0.5369 C.3     
  44 O44          -17.2054     1.8324    -0.7448 O.3     
  45 C45          -22.1340     1.7379     0.3312 C.2     
  46 O46          -21.9777     2.2801    -0.7423 O.2     
  47 N47          -20.0028     2.7371     0.9217 N.am    
  48 C48          -21.0949     1.8924     1.4117 C.3     
  49 C49          -21.7308     2.5434     2.6416 C.3     
  50 C50          -20.7103     2.5868     3.7807 C.3     
  51 C51          -21.3033     3.3482     4.9680 C.3     
  52 C52          -20.3653     1.1597     4.2110 C.3     
  53 C53          -25.5860     0.7119     0.0197 C.2     
  54 O54          -25.7716     0.8212     1.2133 O.2     
  55 N55          -23.2370     0.9974     0.5580 N.am    
  56 C56          -24.1833     0.7405    -0.5304 C.3     
  57 C57          -23.8619    -0.6080    -1.1780 C.3     
  58 C58          -23.8247    -1.6947    -0.1017 C.3     
  59 C59          -25.2331    -1.9080     0.4567 C.3     
  60 C60          -22.5000    -0.5293    -1.8707 C.3     
  61 C61          -28.9301    -0.1206    -1.1998 C.2     
  62 O62          -28.4930    -0.6813    -2.1824 O.2     
  63 N63          -26.6342     0.5648    -0.8146 N.am    
  64 C64          -28.0014     0.6471    -0.2947 C.3     
  65 C65          -28.4387     2.1123    -0.2395 C.3     
  66 C66          -27.5873     2.8534     0.7589 C.ar    
  67 C67          -26.4137     3.4596     0.3512 C.ar    
  68 C68          -25.6326     4.1394     1.2670 C.ar    
  69 C69          -26.0253     4.2134     2.5903 C.ar    
  70 C70          -27.1994     3.6080     2.9978 C.ar    
  71 C71          -27.9826     2.9318     2.0811 C.ar    
  72 C72          -32.5465    -0.3814    -1.6656 C.2     
  73 O73          -32.7665     0.5423    -0.9111 O.2     
  74 N74          -30.2464    -0.1841    -0.9173 N.am    
  75 C75          -31.1492    -0.9304    -1.7972 C.3     
  76 C76          -31.1423    -2.4080    -1.4001 C.3     
  77 C77          -29.7530    -2.9973    -1.6519 C.3     
  78 S78          -29.7448    -4.7491    -1.1812 S.3     
  79 C79          -28.0434    -5.2617    -1.5460 C.3     
  80 C80          -35.9062    -1.4508    -2.6307 C.2     
  81 O81          -35.5197    -2.5493    -2.9696 O.2     
  82 N82          -33.5516    -0.9169    -2.3863 N.am    
  83 C83          -34.9099    -0.3832    -2.2584 C.3     
  84 C84          -35.0761     0.8175    -3.1919 C.3     
  85 C85          -39.4748    -1.5757    -3.4133 C.2     
  86 O86          -39.5685    -0.3668    -3.4391 O.2     
  87 N87          -37.2268    -1.1848    -2.5872 N.am    
  88 C88          -38.1953    -2.2226    -2.9492 C.3     
  89 C89          -38.4812    -3.1012    -1.7296 C.3     
  90 C90          -37.2286    -3.8432    -1.3404 C.ar    
  91 C91          -36.3441    -3.2810    -0.4390 C.ar    
  92 C92          -35.1951    -3.9616    -0.0820 C.ar    
  93 C93          -34.9308    -5.2046    -0.6260 C.ar    
  94 C94          -35.8158    -5.7672    -1.5267 C.ar    
  95 C95          -36.9669    -5.0885    -1.8804 C.ar    
  96 C96          -42.9084    -2.6630    -4.0389 C.2     
  97 O97          -42.7083    -3.7584    -3.5584 O.2     
  98 N98          -40.5151    -2.3406    -3.7996 N.am    
  99 C99          -41.7590    -1.7117    -4.2507 C.3     
 100 C100         -41.6474    -1.3697    -5.7379 C.3     
 101 C101         -40.5787    -0.3256    -5.9344 C.ar    
 102 C102         -39.2704    -0.7099    -6.1616 C.ar    
 103 C103         -38.2901     0.2479    -6.3419 C.ar    
 104 C104         -38.6180     1.5899    -6.2953 C.ar    
 105 C105         -39.9265     1.9742    -6.0690 C.ar    
 106 C106         -40.9076     1.0164    -5.8931 C.ar    
 107 C107         -46.3864    -2.8902    -5.1413 C.2     
 108 O108         -46.2569    -1.9722    -5.9233 O.2     
 109 N109         -44.1588    -2.2964    -4.3834 N.am    
 110 C110         -45.2762    -3.2212    -4.1775 C.3     
 111 C111         -45.7902    -3.0885    -2.7425 C.3     
 112 O112         -46.3397    -1.7832    -2.5522 O.3     
 113 C113         -49.9162    -3.7677    -5.5066 C.2     
 114 O114         -49.9480    -4.3207    -4.4277 O.2     
 115 N115         -47.5231    -3.6143    -5.1344 N.am    
 116 C116         -48.6023    -3.2925    -6.0714 C.3     
 117 C117         -48.3407    -3.9880    -7.4089 C.3     
 118 C118         -47.0710    -3.4151    -8.0418 C.3     
 119 C119         -46.8133    -4.1001    -9.3592 C.2     
 120 O120         -47.5679    -4.9584    -9.7516 O.2     
 121 O121         -45.7456    -3.7567   -10.0966 O.3     
 122 C122         -53.3044    -4.2859    -6.7774 C.2     
 123 O123         -52.9632    -4.0942    -7.9253 O.2     
 124 N124         -51.0559    -3.5782    -6.2005 N.am    
 125 C125         -52.3332    -4.0401    -5.6515 C.3     
 126 C126         -52.9003    -2.9735    -4.7125 C.3     
 127 C127         -51.9749    -2.8132    -3.5047 C.3     
 128 C128         -52.5420    -1.7466    -2.5658 C.3     
 129 C129         -51.6165    -1.5863    -1.3580 C.3     
 130 N130         -52.1610    -0.5623    -0.4564 N.3     
 131 C131         -56.1790    -3.6652    -7.9686 C.2     
 132 O132         -55.9051    -2.6486    -7.3758 O.2     
 133 N133         -54.5521    -4.7189    -6.5086 N.am    
 134 C134         -55.4962    -4.9579    -7.6030 C.3     
 135 C135         -56.5441    -5.9802    -7.1585 C.3     
 136 C136         -55.8664    -7.3287    -6.9068 C.3     
 137 C137         -56.9143    -8.3510    -6.4623 C.3     
 138 C138         -56.2366    -9.6995    -6.2106 C.3     
 139 N139         -57.2428   -10.6811    -5.7838 N.3     
 140 O140         -57.0914    -3.6431    -8.9528 O.3     
 141 C141          -2.2790     8.4551     5.5711 C.2     
 142 O142          -2.7200     9.4511     6.1045 O.2     
 143 C143          13.1343    10.7417    15.9822 C.3     
 144 C144          11.7433    11.2575    15.6082 C.3     
 145 C145          11.1281    10.3424    14.5475 C.3     
 146 C146           9.7371    10.8583    14.1735 C.3     
 147 C147           9.1219     9.9432    13.1128 C.3     
 148 C148           7.7309    10.4591    12.7389 C.3     
 149 C149           7.1158     9.5440    11.6782 C.3     
 150 C150           5.7248    10.0598    11.3042 C.3     
 151 C151           5.1096     9.1447    10.2435 C.3     
 152 C152           3.7186     9.6606     9.8695 C.3     
 153 C153           3.1034     8.7455     8.8088 C.3     
 154 C154           1.7124     9.2613     8.4348 C.3     
 155 C155           1.0973     8.3462     7.3741 C.3     
 156 C156          -0.2938     8.8621     7.0002 C.3     
 157 C157          -0.9089     7.9470     5.9394 C.3     
 158 H158          -2.6343     7.0497     4.1700 H       
 159 H159          -4.8375     8.6240     5.2817 H       
 160 H160          -3.6907    10.1168     3.5960 H       
 161 H161          -4.0420     8.8951     2.3501 H       
 162 H162          -6.4840     9.0824     2.9382 H       
 163 H163          -5.5197    11.4658     4.5825 H       
 164 H164          -7.2130    10.9846     4.3187 H       
 165 H165          -6.1258     9.9353     5.2596 H       
 166 H166          -5.5113    10.3575     1.0471 H       
 167 H167          -6.8052    11.2843     1.8441 H       
 168 H168          -5.0998    11.6879     2.1558 H       
 169 H169          -6.9536     7.7109     4.6050 H       
 170 H170          -6.9041     5.6291     2.5578 H       
 171 H171          -7.6147     5.0376     5.4654 H       
 172 H172          -7.9465     3.9431     4.1014 H       
 173 H173          -5.3409     5.4487     6.2039 H       
 174 H174          -3.0420     4.5806     6.3469 H       
 175 H175          -1.9298     1.9679     5.3842 H       
 176 H176          -3.8390     1.9521     3.0726 H       
 177 H177          -6.1392     2.8187     2.9424 H       
 178 H178          -9.4068     4.6299     2.5871 H       
 179 H179         -11.3156     6.6580     3.4653 H       
 180 H180         -10.8310     6.0461     0.5158 H       
 181 H181         -12.2303     6.9495     1.1435 H       
 182 H182          -9.3171     7.7352     1.5960 H       
 183 H183         -11.4144     8.8771    -0.3051 H       
 184 H184          -9.7882     9.5466    -0.0305 H       
 185 H185          -9.9757     7.9456    -0.7853 H       
 186 H186         -10.3248     9.8573     2.3899 H       
 187 H187         -11.9510     9.1878     2.1153 H       
 188 H188         -10.8946     8.4775     3.3594 H       
 189 H189         -13.6600     5.8402     2.4175 H       
 190 H190         -13.6883     2.9379     2.0962 H       
 191 H191         -14.9534     4.3226     4.5027 H       
 192 H192         -15.2689     2.6369     4.0258 H       
 193 H193         -13.2461     4.3488     6.4424 H       
 194 H194         -11.1002     2.9942     6.9585 H       
 195 H195         -10.6803     1.2065     5.1787 H       
 196 H196         -16.3090     2.3097     2.1000 H       
 197 H197         -17.9051     4.5423     1.1024 H       
 198 H198         -18.3088     3.5435    -1.0959 H       
 199 H199         -16.5591     3.7900    -0.8812 H       
 200 H200         -17.0579     1.5910    -1.6695 H       
 201 H201         -20.1659     3.3772     0.2115 H       
 202 H202         -20.7028     0.9118     1.6815 H       
 203 H203         -22.0433     3.5581     2.3949 H       
 204 H204         -22.5984     1.9617     2.9530 H       
 205 H205         -19.8066     3.0920     3.4399 H       
 206 H206         -22.2070     2.8430     5.3088 H       
 207 H207         -20.5763     3.3791     5.7795 H       
 208 H208         -21.5490     4.3649     4.6614 H       
 209 H209         -21.2691     0.6545     4.5519 H       
 210 H210         -19.9429     0.6172     3.3652 H       
 211 H211         -19.6383     1.1906     5.0226 H       
 212 H212         -23.4043     0.6345     1.4419 H       
 213 H213         -24.1018     1.5306    -1.2768 H       
 214 H214         -24.6298    -0.8504    -1.9127 H       
 215 H215         -23.4618    -2.6255    -0.5375 H       
 216 H216         -23.1576    -1.3861     0.7033 H       
 217 H217         -25.5137    -1.0526     1.0712 H       
 218 H218         -25.9390    -2.0105    -0.3675 H       
 219 H219         -25.2499    -2.8129     1.0641 H       
 220 H220         -21.7184    -0.4006    -1.1220 H       
 221 H221         -22.3219    -1.4494    -2.4274 H       
 222 H222         -22.4895     0.3180    -2.5564 H       
 223 H223         -26.4834     0.4045    -1.7593 H       
 224 H224         -28.0354     0.2199     0.7075 H       
 225 H225         -28.3203     2.5641    -1.2244 H       
 226 H226         -29.4846     2.1681     0.0625 H       
 227 H227         -26.1069     3.4018    -0.6827 H       
 228 H228         -24.7154     4.6125     0.9487 H       
 229 H229         -25.4147     4.7439     3.3060 H       
 230 H230         -27.5060     3.6655     4.0317 H       
 231 H231         -28.9017     2.4619     2.3987 H       
 232 H232         -30.5960     0.2643    -0.1314 H       
 233 H233         -30.8152    -0.8301    -2.8299 H       
 234 H234         -31.3904    -2.5012    -0.3428 H       
 235 H235         -31.8791    -2.9475    -1.9952 H       
 236 H236         -29.5049    -2.9040    -2.7092 H       
 237 H237         -29.0162    -2.4577    -1.0569 H       
 238 H238         -27.9204    -6.3159    -1.2976 H       
 239 H239         -27.8381    -5.1118    -2.6059 H       
 240 H240         -27.3494    -4.6655    -0.9536 H       
 241 H241         -33.3756    -1.6557    -2.9897 H       
 242 H242         -35.0815    -0.0693    -1.2287 H       
 243 H243         -34.9045     0.5037    -4.2216 H       
 244 H244         -36.0867     1.2146    -3.0968 H       
 245 H245         -34.3555     1.5897    -2.9226 H       
 246 H246         -37.5359    -0.3062    -2.3161 H       
 247 H247         -37.7869    -2.8368    -3.7517 H       
 248 H248         -38.8055    -2.4748    -0.8986 H       
 249 H249         -39.2664    -3.8167    -1.9734 H       
 250 H250         -36.5506    -2.3098    -0.0140 H       
 251 H251         -34.5037    -3.5220     0.6217 H       
 252 H252         -34.0328    -5.7360    -0.3476 H       
 253 H253         -35.6091    -6.7382    -1.9519 H       
 254 H254         -37.6601    -5.5297    -2.5812 H       
 255 H255         -40.4402    -3.3074    -3.7790 H       
 256 H256         -41.9326    -0.7993    -3.6802 H       
 257 H257         -41.3860    -2.2672    -6.2984 H       
 258 H258         -42.6024    -0.9838    -6.0946 H       
 259 H259         -39.0141    -1.7584    -6.1980 H       
 260 H260         -37.2678    -0.0524    -6.5187 H       
 261 H261         -37.8520     2.3382    -6.4354 H       
 262 H262         -40.1827     3.0228    -6.0323 H       
 263 H263         -41.9305     1.3166    -5.7199 H       
 264 H264         -44.3188    -1.4203    -4.7677 H       
 265 H265         -44.9384    -4.2432    -4.3494 H       
 266 H266         -46.5615    -3.8373    -2.5622 H       
 267 H267         -44.9659    -3.2409    -2.0458 H       
 268 H268         -46.6857    -1.6280    -1.6626 H       
 269 H269         -47.6266    -4.3485    -4.5090 H       
 270 H270         -48.6413    -2.2140    -6.2242 H       
 271 H271         -48.2134    -5.0578    -7.2434 H       
 272 H272         -49.1863    -3.8217    -8.0763 H       
 273 H273         -47.1983    -2.3453    -8.2073 H       
 274 H274         -46.2254    -3.5814    -7.3743 H       
 275 H275         -45.6220    -4.2239   -10.9342 H       
 276 H276         -51.0305    -3.1359    -7.0635 H       
 277 H277         -52.1771    -4.9659    -5.0977 H       
 278 H278         -52.9732    -2.0241    -5.2430 H       
 279 H279         -53.8907    -3.2773    -4.3736 H       
 280 H280         -51.9020    -3.7626    -2.9743 H       
 281 H281         -50.9844    -2.5094    -3.8437 H       
 282 H282         -52.6148    -0.7972    -3.0962 H       
 283 H283         -53.5324    -2.0504    -2.2268 H       
 284 H284         -51.5437    -2.5358    -0.8275 H       
 285 H285         -50.6261    -1.2825    -1.6969 H       
 286 H286         -51.5673    -0.4377     0.3498 H       
 287 H287         -52.2987     0.3111    -0.9425 H       
 288 H288         -54.8249    -4.8723    -5.5904 H       
 289 H289         -54.9582    -5.3424    -8.4695 H       
 290 H290         -57.0208    -5.6362    -6.2406 H       
 291 H291         -57.2967    -6.0919    -7.9390 H       
 292 H292         -55.3897    -7.6727    -7.8247 H       
 293 H293         -55.1138    -7.2170    -6.1263 H       
 294 H294         -57.3910    -8.0070    -5.5444 H       
 295 H295         -57.6669    -8.4627    -7.2428 H       
 296 H296         -55.7599   -10.0435    -7.1285 H       
 297 H297         -55.4840    -9.5878    -5.4301 H       
 298 H298         -56.8198   -11.5807    -5.6112 H       
 299 H299         -57.7439   -10.3551    -4.9710 H       
 300 H300         -57.5025    -2.7907    -9.1514 H       
 301 H301          13.0520     9.7297    16.3788 H       
 302 H302          13.7693    10.7342    15.0963 H       
 303 H303          13.5725    11.3936    16.7379 H       
 304 H304          11.1082    11.2650    16.4941 H       
 305 H305          11.8255    12.2695    15.2116 H       
 306 H306          11.7631    10.3350    13.6616 H       
 307 H307          11.0458     9.3305    14.9441 H       
 308 H308           9.1021    10.8658    15.0594 H       
 309 H309           9.8194    11.8702    13.7769 H       
 310 H310           9.7570     9.9357    12.2269 H       
 311 H311           9.0397     8.9313    13.5095 H       
 312 H312           7.0959    10.4665    13.6248 H       
 313 H313           7.8132    11.4710    12.3422 H       
 314 H314           7.7508     9.5365    10.7923 H       
 315 H315           7.0335     8.5320    12.0748 H       
 316 H316           5.0897    10.0673    12.1901 H       
 317 H317           5.8070    11.0718    10.9076 H       
 318 H318           5.7446     9.1372     9.3576 H       
 319 H319           5.0273     8.1328    10.6401 H       
 320 H320           3.0836     9.6681    10.7554 H       
 321 H321           3.8008    10.6725     9.4729 H       
 322 H322           3.7385     8.7380     7.9229 H       
 323 H323           3.0212     7.7336     9.2054 H       
 324 H324           1.0774     9.2688     9.3207 H       
 325 H325           1.7947    10.2733     8.0382 H       
 326 H326           1.7323     8.3388     6.4882 H       
 327 H327           1.0150     7.3343     7.7708 H       
 328 H328          -0.9288     8.8696     7.8860 H       
 329 H329          -0.2115     9.8740     6.6035 H       
 330 H330          -0.9912     6.9351     6.3361 H       
 331 H331          -0.2739     7.9395     5.0536 H       
@<TRIPOS>BOND
   1    1    2 2
   2    1    4 1
   3    1   11 am
   4    3  141 am
   5    3    4 1
   6    3  158 1
   7    4    5 1
   8    4  159 1
   9    5    6 1
  10    5  160 1
  11    5  161 1
  12    6    7 1
  13    6    8 1
  14    6  162 1
  15    7  163 1
  16    7  164 1
  17    7  165 1
  18    8  166 1
  19    8  167 1
  20    8  168 1
  21    9   10 2
  22    9   12 1
  23    9   23 am
  24   11   12 1
  25   11  169 1
  26   12   13 1
  27   12  170 1
  28   13   14 1
  29   13  171 1
  30   13  172 1
  31   14   15 ar
  32   14   20 ar
  33   15   16 ar
  34   15  173 1
  35   16   17 ar
  36   16  174 1
  37   17   18 1
  38   17   19 ar
  39   18  175 1
  40   19   20 ar
  41   19  176 1
  42   20  177 1
  43   21   22 2
  44   21   24 1
  45   21   31 am
  46   23   24 1
  47   23  178 1
  48   24   25 1
  49   24  179 1
  50   25   26 1
  51   25  180 1
  52   25  181 1
  53   26   27 1
  54   26   28 1
  55   26  182 1
  56   27  183 1
  57   27  184 1
  58   27  185 1
  59   28  186 1
  60   28  187 1
  61   28  188 1
  62   29   30 2
  63   29   32 1
  64   29   41 am
  65   31   32 1
  66   31  189 1
  67   32   33 1
  68   32  190 1
  69   33   34 1
  70   33  191 1
  71   33  192 1
  72   34   35 2
  73   34   38 1
  74   35   36 1
  75   35  193 1
  76   36   37 1
  77   36  194 1
  78   37   38 2
  79   37  195 1
  80   39   40 2
  81   39   42 1
  82   39   47 am
  83   41   42 1
  84   41  196 1
  85   42   43 1
  86   42  197 1
  87   43   44 1
  88   43  198 1
  89   43  199 1
  90   44  200 1
  91   45   46 2
  92   45   48 1
  93   45   55 am
  94   47   48 1
  95   47  201 1
  96   48   49 1
  97   48  202 1
  98   49   50 1
  99   49  203 1
 100   49  204 1
 101   50   51 1
 102   50   52 1
 103   50  205 1
 104   51  206 1
 105   51  207 1
 106   51  208 1
 107   52  209 1
 108   52  210 1
 109   52  211 1
 110   53   54 2
 111   53   56 1
 112   53   63 am
 113   55   56 1
 114   55  212 1
 115   56   57 1
 116   56  213 1
 117   57   58 1
 118   57   60 1
 119   57  214 1
 120   58   59 1
 121   58  215 1
 122   58  216 1
 123   59  217 1
 124   59  218 1
 125   59  219 1
 126   60  220 1
 127   60  221 1
 128   60  222 1
 129   61   62 2
 130   61   64 1
 131   61   74 am
 132   63   64 1
 133   63  223 1
 134   64   65 1
 135   64  224 1
 136   65   66 1
 137   65  225 1
 138   65  226 1
 139   66   67 ar
 140   66   71 ar
 141   67   68 ar
 142   67  227 1
 143   68   69 ar
 144   68  228 1
 145   69   70 ar
 146   69  229 1
 147   70   71 ar
 148   70  230 1
 149   71  231 1
 150   72   73 2
 151   72   75 1
 152   72   82 am
 153   74   75 1
 154   74  232 1
 155   75   76 1
 156   75  233 1
 157   76   77 1
 158   76  234 1
 159   76  235 1
 160   77   78 1
 161   77  236 1
 162   77  237 1
 163   78   79 1
 164   79  238 1
 165   79  239 1
 166   79  240 1
 167   80   81 2
 168   80   83 1
 169   80   87 am
 170   82   83 1
 171   82  241 1
 172   83   84 1
 173   83  242 1
 174   84  243 1
 175   84  244 1
 176   84  245 1
 177   85   86 2
 178   85   88 1
 179   85   98 am
 180   87   88 1
 181   87  246 1
 182   88   89 1
 183   88  247 1
 184   89   90 1
 185   89  248 1
 186   89  249 1
 187   90   91 ar
 188   90   95 ar
 189   91   92 ar
 190   91  250 1
 191   92   93 ar
 192   92  251 1
 193   93   94 ar
 194   93  252 1
 195   94   95 ar
 196   94  253 1
 197   95  254 1
 198   96   97 2
 199   96   99 1
 200   96  109 am
 201   98   99 1
 202   98  255 1
 203   99  100 1
 204   99  256 1
 205  100  101 1
 206  100  257 1
 207  100  258 1
 208  101  102 ar
 209  101  106 ar
 210  102  103 ar
 211  102  259 1
 212  103  104 ar
 213  103  260 1
 214  104  105 ar
 215  104  261 1
 216  105  106 ar
 217  105  262 1
 218  106  263 1
 219  107  108 2
 220  107  110 1
 221  107  115 am
 222  109  110 1
 223  109  264 1
 224  110  111 1
 225  110  265 1
 226  111  112 1
 227  111  266 1
 228  111  267 1
 229  112  268 1
 230  113  114 2
 231  113  116 1
 232  113  124 am
 233  115  116 1
 234  115  269 1
 235  116  117 1
 236  116  270 1
 237  117  118 1
 238  117  271 1
 239  117  272 1
 240  118  119 1
 241  118  273 1
 242  118  274 1
 243  119  120 2
 244  119  121 1
 245  121  275 1
 246  122  123 2
 247  122  125 1
 248  122  133 am
 249  124  125 1
 250  124  276 1
 251  125  126 1
 252  125  277 1
 253  126  127 1
 254  126  278 1
 255  126  279 1
 256  127  128 1
 257  127  280 1
 258  127  281 1
 259  128  129 1
 260  128  282 1
 261  128  283 1
 262  129  130 1
 263  129  284 1
 264  129  285 1
 265  130  286 1
 266  130  287 1
 267  131  132 2
 268  131  134 1
 269  131  140 1
 270  133  134 1
 271  133  288 1
 272  134  135 1
 273  134  289 1
 274  135  136 1
 275  135  290 1
 276  135  291 1
 277  136  137 1
 278  136  292 1
 279  136  293 1
 280  137  138 1
 281  137  294 1
 282  137  295 1
 283  138  139 1
 284  138  296 1
 285  138  297 1
 286  139  298 1
 287  139  299 1
 288  140  300 1
 289  141  142 2
 290  141  157 1
 291  143  144 1
 292  143  301 1
 293  143  302 1
 294  143  303 1
 295  144  145 1
 296  144  304 1
 297  144  305 1
 298  145  146 1
 299  145  306 1
 300  145  307 1
 301  146  147 1
 302  146  308 1
 303  146  309 1
 304  147  148 1
 305  147  310 1
 306  147  311 1
 307  148  149 1
 308  148  312 1
 309  148  313 1
 310  149  150 1
 311  149  314 1
 312  149  315 1
 313  150  151 1
 314  150  316 1
 315  150  317 1
 316  151  152 1
 317  151  318 1
 318  151  319 1
 319  152  153 1
 320  152  320 1
 321  152  321 1
 322  153  154 1
 323  153  322 1
 324  153  323 1
 325  154  155 1
 326  154  324 1
 327  154  325 1
 328  155  156 1
 329  155  326 1
 330  155  327 1
 331  156  157 1
 332  156  328 1
 333  156  329 1
 334  157  330 1
 335  157  331 1

#	End of record

