#	Name: ASD01028592
#	Creating user name:	WinNT
#	Creation time:	15. 06. 2019 18:57

#	Modifying user name:	WinNT
#	Modification time:	15. 06. 2019 18:57

#	Program:	/corina/corina34_cracker 3.40 0067  02.08.2006

@<TRIPOS>MOLECULE
ASD01028592
  42   46    0    0    0
SMALL
NO_CHARGES


@<TRIPOS>ATOM
   1 N1            -0.0169     1.3921     0.0097 N.2     
   2 N2             0.0021    -0.0041     0.0020 N.pl3   
   3 C3             1.1072     2.0742     0.0026 C.2     
   4 C4             2.3534     1.4122    -0.0128 C.2     
   5 C5             2.4037     0.0541    -0.0206 C.2     
   6 C6             1.2007    -0.6771    -0.0130 C.2     
   7 N7             0.9143    -1.9687    -0.0172 N.2     
   8 N8            -0.3640    -2.1207    -0.0058 N.2     
   9 C9            -0.9586    -0.9538     0.0054 C.2     
  10 C10           -2.4463    -0.7138     0.0206 C.3     
  11 N11           -2.9155    -0.6432     1.4066 N.pl3   
  12 C12           -4.2596    -0.4273     1.6739 C.ar    
  13 C13           -5.1758    -0.2758     0.6466 C.ar    
  14 C14           -6.5154    -0.0612     0.9436 C.ar    
  15 N15           -6.9464     0.0037     2.1818 N.ar    
  16 C16           -6.1170    -0.1339     3.2212 C.ar    
  17 C17           -4.7375    -0.3612     3.0064 C.ar    
  18 C18           -6.5929    -0.0626     4.5446 C.ar    
  19 C19           -5.6941    -0.2118     5.5643 C.ar    
  20 C20           -4.3453    -0.4282     5.2774 C.ar    
  21 N21           -3.9098    -0.4989     4.0429 N.ar    
  22 F22           -6.1110    -0.1494     6.8479 F       
  23 C23            1.0649     3.5569     0.0105 C.ar    
  24 C24           -0.1604     4.2206     0.0253 C.ar    
  25 C25            2.2504     4.2895     0.0089 C.ar    
  26 C26           -0.1960     5.6020     0.0331 C.ar    
  27 C27            2.2072     5.6706     0.0168 C.ar    
  28 C28            0.9859     6.3279     0.0257 C.ar    
  29 F29            3.3560     6.3816     0.0153 F       
  30 F30            0.9473     7.6783     0.0325 F       
  31 F31           -1.3834     6.2463     0.0474 F       
  32 H32            3.2685     1.9857    -0.0188 H       
  33 H33            3.3546    -0.4578    -0.0321 H       
  34 H34           -2.6681     0.2253    -0.4864 H       
  35 H35           -2.9516    -1.5319    -0.4928 H       
  36 H36           -2.2863    -0.7474     2.1375 H       
  37 H37           -4.8497    -0.3239    -0.3818 H       
  38 H38           -7.2211     0.0556     0.1344 H       
  39 H39           -7.6400     0.1058     4.7488 H       
  40 H40           -3.6449    -0.5441     6.0913 H       
  41 H41           -1.0811     3.6560     0.0303 H       
  42 H42            3.2018     3.7783     0.0020 H       
@<TRIPOS>BOND
   1    1    2 1
   2    1    3 2
   3    2    6 1
   4    2    9 1
   5    3    4 1
   6    3   23 1
   7    4    5 2
   8    4   32 1
   9    5    6 1
  10    5   33 1
  11    6    7 2
  12    7    8 1
  13    8    9 2
  14    9   10 1
  15   10   11 1
  16   10   34 1
  17   10   35 1
  18   11   12 1
  19   11   36 1
  20   12   13 ar
  21   12   17 ar
  22   13   14 ar
  23   13   37 1
  24   14   15 ar
  25   14   38 1
  26   15   16 ar
  27   16   17 ar
  28   16   18 ar
  29   17   21 ar
  30   18   19 ar
  31   18   39 1
  32   19   20 ar
  33   19   22 1
  34   20   21 ar
  35   20   40 1
  36   23   24 ar
  37   23   25 ar
  38   24   26 ar
  39   24   41 1
  40   25   27 ar
  41   25   42 1
  42   26   31 1
  43   26   28 ar
  44   27   28 ar
  45   27   29 1
  46   28   30 1

#	End of record

