#	Name: ASD01915950
#	Creating user name:	WinNT
#	Creation time:	15. 06. 2019 20:06

#	Modifying user name:	WinNT
#	Modification time:	15. 06. 2019 20:06

#	Program:	/corina/corina34_cracker 3.40 0067  02.08.2006

@<TRIPOS>MOLECULE
ASD01915950
  39   42    0    0    0
SMALL
NO_CHARGES


@<TRIPOS>ATOM
   1 C1            -0.0076     1.4131     0.0993 C.2     
   2 C2             0.0297     0.0462    -0.0127 C.2     
   3 C3            -1.2664    -0.7396    -0.1275 C.3     
   4 C4            -2.3681     0.0149     0.6141 C.3     
   5 N5            -2.4034     1.4321     0.2718 N.am    
   6 C6            -1.2704     2.1594     0.1343 C.2     
   7 O7            -1.2976     3.3727     0.0445 O.2     
   8 S8             1.6352     2.0098     0.1961 S.3     
   9 C9             2.2290     0.4087     0.0887 C.2     
  10 N10            1.2487    -0.4313    -0.0098 N.2     
  11 O11            4.1924     0.0168    -1.2306 O.3     
  12 C12            5.5021    -0.3078    -1.3923 C.ar    
  13 C13            6.0582    -0.3399    -2.6629 C.ar    
  14 C14            6.2866    -0.6023    -0.2867 C.ar    
  15 C15            7.6178    -0.9316    -0.4537 C.ar    
  16 C16            8.1685    -0.9674    -1.7215 C.ar    
  17 C17            7.3899    -0.6698    -2.8246 C.ar    
  18 C18            3.6875     0.0298     0.1062 C.3     
  19 C19           -3.6364     2.0538     0.0807 C.ar    
  20 N20           -4.2515     2.6197     1.1064 N.ar    
  21 C21           -5.4193     3.2189     0.9690 C.ar    
  22 C22           -6.0461     3.2767    -0.2596 C.ar    
  23 C23           -5.4354     2.6955    -1.3629 C.ar    
  24 C24           -4.2074     2.0788    -1.1895 C.ar    
  25 F25           -3.5772     1.5008    -2.2354 F       
  26 H26           -1.5386    -0.8439    -1.1778 H       
  27 H27           -1.1361    -1.7260     0.3176 H       
  28 H28           -3.3305    -0.4320     0.3650 H       
  29 H29           -2.2026    -0.0846     1.6869 H       
  30 H30            5.4505    -0.1074    -3.5249 H       
  31 H31            5.8571    -0.5737     0.7038 H       
  32 H32            8.2289    -1.1608     0.4067 H       
  33 H33            9.2095    -1.2248    -1.8499 H       
  34 H34            7.8223    -0.6988    -3.8139 H       
  35 H35            4.2446     0.7561     0.6980 H       
  36 H36            3.8002    -0.9609     0.5467 H       
  37 H37           -5.8911     3.6698     1.8295 H       
  38 H38           -7.0020     3.7688    -0.3615 H       
  39 H39           -5.9054     2.7270    -2.3348 H       
@<TRIPOS>BOND
   1    1    2 2
   2    1    8 1
   3    1    6 1
   4    2    3 1
   5    2   10 1
   6    3    4 1
   7    3   26 1
   8    3   27 1
   9    4    5 1
  10    4   28 1
  11    4   29 1
  12    5    6 am
  13    5   19 1
  14    6    7 2
  15    8    9 1
  16    9   10 2
  17    9   18 1
  18   11   12 1
  19   11   18 1
  20   12   13 ar
  21   12   14 ar
  22   13   17 ar
  23   13   30 1
  24   14   15 ar
  25   14   31 1
  26   15   16 ar
  27   15   32 1
  28   16   17 ar
  29   16   33 1
  30   17   34 1
  31   18   35 1
  32   18   36 1
  33   19   20 ar
  34   19   24 ar
  35   20   21 ar
  36   21   22 ar
  37   21   37 1
  38   22   23 ar
  39   22   38 1
  40   23   24 ar
  41   23   39 1
  42   24   25 1

#	End of record

