#	Name: ASD01883466
#	Creating user name:	WinNT
#	Creation time:	15. 06. 2019 19:46

#	Modifying user name:	WinNT
#	Modification time:	15. 06. 2019 19:46

#	Program:	/corina/corina34_cracker 3.40 0067  02.08.2006

@<TRIPOS>MOLECULE
ASD01883466
  58   60    0    0    0
SMALL
NO_CHARGES


@<TRIPOS>ATOM
   1 N1            -0.0080     1.3271     0.0354 N.am    
   2 C2            -0.3621     0.6466    -1.0706 C.2     
   3 C3            -1.5935    -0.0493    -1.1068 C.2     
   4 C4            -2.4239    -0.0108     0.0261 C.2     
   5 C5            -1.9984     0.7180     1.1521 C.2     
   6 C6            -0.8095     1.3591     1.1317 C.2     
   7 O7             0.3773     0.6300    -2.0401 O.2     
   8 C8            -1.9862    -0.7780    -2.2753 C.1     
   9 N9            -2.2977    -1.3561    -3.2022 N.1     
  10 N10           -3.6309    -0.6732     0.0341 N.pl3   
  11 C11           -3.6824    -2.1368    -0.0840 C.3     
  12 C12           -4.4978    -2.6973     1.0855 C.3     
  13 C13           -5.8700    -2.0205     1.1162 C.3     
  14 C14           -5.6936    -0.5152     1.3280 C.3     
  15 C15           -4.8915     0.0697     0.1669 C.3     
  16 C16            1.2701     2.0428     0.0594 C.3     
  17 C17            1.0646     3.4709    -0.4495 C.3     
  18 C18            2.3994     4.2183    -0.4244 C.3     
  19 C19            2.2201     5.6036    -1.0487 C.3     
  20 C20            2.8727     4.3685     1.0228 C.3     
  21 C21           -7.0671     0.1560     1.3913 C.3     
  22 N22           -6.5594    -2.2571    -0.1547 N.pl3   
  23 C23           -7.2914    -3.4315    -0.3440 C.ar    
  24 C24           -7.9457    -3.6574    -1.5484 C.ar    
  25 C25           -8.6682    -4.8198    -1.7325 C.ar    
  26 C26           -8.7408    -5.7584    -0.7195 C.ar    
  27 C27           -8.0907    -5.5367     0.4807 C.ar    
  28 C28           -7.3621    -4.3788     0.6695 C.ar    
  29 H29           -2.6206     0.7617     2.0339 H       
  30 H30           -0.4935     1.9153     2.0018 H       
  31 H31           -4.1580    -2.4109    -1.0256 H       
  32 H32           -2.6709    -2.5418    -0.0516 H       
  33 H33           -4.6251    -3.7723     0.9580 H       
  34 H34           -3.9743    -2.5009     2.0212 H       
  35 H35           -6.4613    -2.4353     1.9325 H       
  36 H36           -5.1589    -0.3393     2.2614 H       
  37 H37           -4.6789     1.1207     0.3625 H       
  38 H38           -5.4636    -0.0239    -0.7562 H       
  39 H39            1.6509     2.0721     1.0803 H       
  40 H40            1.9866     1.5284    -0.5810 H       
  41 H41            0.6838     3.4416    -1.4704 H       
  42 H42            0.3481     3.9853     0.1909 H       
  43 H43            3.1410     3.6568    -0.9927 H       
  44 H44            1.4786     6.1650    -0.4804 H       
  45 H45            3.1711     6.1360    -1.0308 H       
  46 H46            1.8830     5.4966    -2.0797 H       
  47 H47            3.0004     3.3816     1.4676 H       
  48 H48            3.8236     4.9009     1.0407 H       
  49 H49            2.1311     4.9300     1.5911 H       
  50 H50           -7.6383    -0.2628     2.2198 H       
  51 H51           -6.9410     1.2281     1.5422 H       
  52 H52           -7.6005    -0.0192     0.4570 H       
  53 H53           -6.5074    -1.5982    -0.8646 H       
  54 H54           -7.8897    -2.9246    -2.3398 H       
  55 H55           -9.1774    -4.9959    -2.6685 H       
  56 H56           -9.3069    -6.6665    -0.8660 H       
  57 H57           -8.1495    -6.2717     1.2698 H       
  58 H58           -6.8543    -4.2064     1.6070 H       
@<TRIPOS>BOND
   1    1    2 am
   2    1   16 1
   3    1    6 1
   4    2    3 1
   5    2    7 2
   6    3    4 2
   7    3    8 1
   8    4    5 1
   9    4   10 1
  10    5    6 2
  11    5   29 1
  12    6   30 1
  13    8    9 3
  14   10   11 1
  15   10   15 1
  16   11   12 1
  17   11   31 1
  18   11   32 1
  19   12   13 1
  20   12   33 1
  21   12   34 1
  22   13   14 1
  23   13   22 1
  24   13   35 1
  25   14   15 1
  26   14   21 1
  27   14   36 1
  28   15   37 1
  29   15   38 1
  30   16   17 1
  31   16   39 1
  32   16   40 1
  33   17   18 1
  34   17   41 1
  35   17   42 1
  36   18   19 1
  37   18   20 1
  38   18   43 1
  39   19   44 1
  40   19   45 1
  41   19   46 1
  42   20   47 1
  43   20   48 1
  44   20   49 1
  45   21   50 1
  46   21   51 1
  47   21   52 1
  48   22   23 1
  49   22   53 1
  50   23   24 ar
  51   23   28 ar
  52   24   25 ar
  53   24   54 1
  54   25   26 ar
  55   25   55 1
  56   26   27 ar
  57   26   56 1
  58   27   28 ar
  59   27   57 1
  60   28   58 1

#	End of record

