#	Name: ASD01840339
#	Creating user name:	WinNT
#	Creation time:	15. 06. 2019 19:37

#	Modifying user name:	WinNT
#	Modification time:	15. 06. 2019 19:37

#	Program:	/corina/corina34_cracker 3.40 0067  02.08.2006

@<TRIPOS>MOLECULE
ASD01840339
  48   51    0    0    0
SMALL
NO_CHARGES


@<TRIPOS>ATOM
   1 C1            -0.0184     1.5028     0.0103 C.3     
   2 C2             0.0021    -0.0041     0.0020 C.ar    
   3 N3             0.0054    -0.6481    -1.1471 N.ar    
   4 C4             0.0235    -1.9690    -1.2081 C.ar    
   5 C5             0.0303    -2.9045    -2.3920 C.3     
   6 N6             0.0516    -4.2772    -1.8770 N.am    
   7 C7             0.0577    -4.1824    -0.4134 C.3     
   8 C8             0.0396    -2.7206    -0.0505 C.ar    
   9 C9             0.0367    -2.0788     1.1789 C.ar    
  10 C10            0.0540    -2.8696     2.4616 C.3     
  11 C11            0.0228    -0.6928     1.2003 C.ar    
  12 C12            0.0251     0.0518     2.5104 C.3     
  13 C13            0.0633    -5.4092    -2.6084 C.2     
  14 O14            0.0804    -6.4884    -2.0553 O.2     
  15 C15            0.0553    -5.3339    -4.1135 C.3     
  16 C16            0.0715    -6.7490    -4.6950 C.3     
  17 C17           -1.3299    -7.3570    -4.8845 C.3     
  18 N18           -0.8268    -7.8629    -6.1807 N.3     
  19 C19            0.1876    -6.7869    -6.2295 C.3     
  20 C20           -1.7733    -7.6986    -7.1790 C.ar    
  21 C21           -1.5066    -8.1149    -8.4848 C.ar    
  22 C22           -2.4826    -7.9290    -9.4442 C.ar    
  23 N23           -3.6314    -7.3661    -9.0975 N.ar    
  24 C24           -3.8527    -6.9838    -7.8558 C.ar    
  25 N25           -2.9525    -7.1467    -6.9077 N.ar    
  26 H26            1.0042     1.8801     0.0026 H       
  27 H27           -0.5455     1.8639    -0.8728 H       
  28 H28           -0.5286     1.8543     0.9071 H       
  29 H29           -0.8670    -2.7487    -2.9909 H       
  30 H30            0.9169    -2.7244    -3.0000 H       
  31 H31           -0.8258    -4.6750    -0.0074 H       
  32 H32            0.9584    -4.6507    -0.0165 H       
  33 H33            1.0857    -3.0460     2.7659 H       
  34 H34           -0.4639    -2.3099     3.2405 H       
  35 H35           -0.4474    -3.8249     2.3063 H       
  36 H36           -1.0019     0.2174     2.8360 H       
  37 H37            0.5541    -0.5353     3.2612 H       
  38 H38            0.5247     1.0120     2.3818 H       
  39 H39           -0.8433    -4.8145    -4.4465 H       
  40 H40            0.9364    -4.7907    -4.4548 H       
  41 H41            0.7729    -7.4096    -4.1854 H       
  42 H42           -1.5678    -8.1437    -4.1685 H       
  43 H43           -2.1217    -6.6141    -4.9805 H       
  44 H44           -0.1603    -5.8772    -6.7188 H       
  45 H45            1.1622    -7.1181    -6.5881 H       
  46 H46           -0.5608    -8.5705    -8.7383 H       
  47 H47           -2.3116    -8.2383   -10.4648 H       
  48 H48           -4.8000    -6.5284    -7.6077 H       
@<TRIPOS>BOND
   1    1    2 1
   2    1   26 1
   3    1   27 1
   4    1   28 1
   5    2   11 ar
   6    2    3 ar
   7    3    4 ar
   8    4    8 ar
   9    4    5 1
  10    5    6 1
  11    5   29 1
  12    5   30 1
  13    6    7 1
  14    6   13 am
  15    7    8 1
  16    7   31 1
  17    7   32 1
  18    8    9 ar
  19    9   10 1
  20    9   11 ar
  21   10   33 1
  22   10   34 1
  23   10   35 1
  24   11   12 1
  25   12   36 1
  26   12   37 1
  27   12   38 1
  28   13   14 2
  29   13   15 1
  30   15   16 1
  31   15   39 1
  32   15   40 1
  33   16   19 1
  34   16   17 1
  35   16   41 1
  36   17   18 1
  37   17   42 1
  38   17   43 1
  39   18   19 1
  40   18   20 1
  41   19   44 1
  42   19   45 1
  43   20   25 ar
  44   20   21 ar
  45   21   22 ar
  46   21   46 1
  47   22   23 ar
  48   22   47 1
  49   23   24 ar
  50   24   25 ar
  51   24   48 1

#	End of record

