#	Name: ASD03740225
#	Creating user name:	WinNT
#	Creation time:	15. 06. 2019 20:46

#	Modifying user name:	WinNT
#	Modification time:	15. 06. 2019 20:46

#	Program:	/corina/corina34_cracker 3.40 0067  02.08.2006

@<TRIPOS>MOLECULE
ASD03740225
  54   56    0    0    0
SMALL
NO_CHARGES


@<TRIPOS>ATOM
   1 C1            -0.4511     2.5100    -0.8621 C.ar    
   2 C2            -0.6353     1.3193    -1.5423 C.ar    
   3 C3             0.4528     0.6237    -2.0390 C.ar    
   4 C4             1.7296     1.1141    -1.8586 C.ar    
   5 C5             1.9224     2.3149    -1.1737 C.ar    
   6 C6             0.8204     3.0116    -0.6753 C.ar    
   7 C7             3.2879     2.8460    -0.9762 C.2     
   8 N8             3.4636     4.0762    -0.4544 N.am    
   9 O9             4.2522     2.1733    -1.2846 O.2     
  10 C10            2.3913     5.0164    -0.0968 C.3     
  11 C11            3.0650     6.2987     0.4355 C.3     
  12 C12            4.4872     6.2255    -0.1806 C.3     
  13 C13            4.7625     4.6993    -0.1416 C.3     
  14 C14            1.5654     5.3393    -1.3152 C.2     
  15 C15            2.3361     7.5250    -0.0502 C.2     
  16 O16            2.6203     8.0133    -1.1182 O.2     
  17 O17            1.3710     8.0746     0.7037 O.3     
  18 C18            0.2655     5.6381    -1.3059 C.2     
  19 C19           -0.2818     5.9000    -2.5501 C.2     
  20 C20            0.5738     5.8139    -3.5698 C.2     
  21 S21            2.1698     5.3871    -2.9663 S.3     
  22 C22            5.2349     4.2756     1.2506 C.3     
  23 C23            5.7876     4.3252    -1.1810 C.2     
  24 O24            6.2481     5.1733    -1.9079 O.2     
  25 O25            6.1889     3.0498    -1.2991 O.3     
  26 C26            6.5153     5.0333     1.6073 C.3     
  27 C27            6.9630     4.6430     3.0173 C.3     
  28 C28            7.6153     4.6759     0.6057 C.3     
  29 C29           -2.0271     0.7775    -1.7427 C.3     
  30 F30           -2.5526     1.2734    -2.9407 F       
  31 F31           -1.9803    -0.6197    -1.7971 F       
  32 F32           -2.8406     1.1756    -0.6765 F       
  33 H33           -1.3049     3.0502    -0.4805 H       
  34 H34            0.3022    -0.3053    -2.5687 H       
  35 H35            2.5781     0.5698    -2.2461 H       
  36 H36            0.9629     3.9412    -0.1442 H       
  37 H37            1.7594     4.5810     0.6773 H       
  38 H38            3.1152     6.2845     1.5243 H       
  39 H39            4.4893     6.6002    -1.2041 H       
  40 H40            5.2073     6.7664     0.4334 H       
  41 H41            0.9318     8.8603     0.3502 H       
  42 H42           -0.3161     5.6728    -0.3965 H       
  43 H43           -1.3226     6.1545    -2.6850 H       
  44 H44            0.3253     5.9837    -4.6071 H       
  45 H45            4.4607     4.5055     1.9826 H       
  46 H46            5.4335     3.2038     1.2563 H       
  47 H47            6.8482     2.8583    -1.9802 H       
  48 H48            6.3249     6.1060     1.5704 H       
  49 H49            7.1534     3.5704     3.0542 H       
  50 H50            7.8752     5.1829     3.2714 H       
  51 H51            6.1793     4.8977     3.7308 H       
  52 H52            8.5693     5.0678     0.9585 H       
  53 H53            7.6810     3.5921     0.5096 H       
  54 H54            7.3793     5.1131    -0.3645 H       
@<TRIPOS>BOND
   1    1    2 ar
   2    1    6 ar
   3    1   33 1
   4    2    3 ar
   5    2   29 1
   6    3    4 ar
   7    3   34 1
   8    4    5 ar
   9    4   35 1
  10    5    6 ar
  11    5    7 1
  12    6   36 1
  13    7    8 am
  14    7    9 2
  15    8   10 1
  16    8   13 1
  17   10   11 1
  18   10   14 1
  19   10   37 1
  20   11   12 1
  21   11   15 1
  22   11   38 1
  23   12   13 1
  24   12   39 1
  25   12   40 1
  26   13   22 1
  27   13   23 1
  28   14   18 2
  29   14   21 1
  30   15   16 2
  31   15   17 1
  32   17   41 1
  33   18   19 1
  34   18   42 1
  35   19   20 2
  36   19   43 1
  37   20   21 1
  38   20   44 1
  39   22   26 1
  40   22   45 1
  41   22   46 1
  42   23   24 2
  43   23   25 1
  44   25   47 1
  45   26   27 1
  46   26   28 1
  47   26   48 1
  48   27   49 1
  49   27   50 1
  50   27   51 1
  51   28   52 1
  52   28   53 1
  53   28   54 1
  54   29   30 1
  55   29   31 1
  56   29   32 1

#	End of record

