#	Name: ASD01885159
#	Creating user name:	WinNT
#	Creation time:	15. 06. 2019 19:49

#	Modifying user name:	WinNT
#	Modification time:	15. 06. 2019 19:49

#	Program:	/corina/corina34_cracker 3.40 0067  02.08.2006

@<TRIPOS>MOLECULE
ASD01885159
  57   61    0    0    0
SMALL
NO_CHARGES


@<TRIPOS>ATOM
   1 C1             0.0141     1.3557     0.2031 C.2     
   2 C2             1.3351    -0.6334     0.2453 C.2     
   3 C3             2.4159     0.1096    -0.2599 C.2     
   4 C4             2.2772     1.4272    -0.5167 C.2     
   5 N5             1.0881     2.0554    -0.2901 N.pl3   
   6 C6             0.6571     3.3362    -0.4483 C.2     
   7 N7            -0.5941     3.3800    -0.0695 N.2     
   8 N8            -0.9857     2.2153     0.3125 N.2     
   9 C9             1.4727     4.4934    -0.9647 C.3     
  10 C10            1.4960    -2.1045     0.5303 C.3     
  11 C11            1.3314     4.5784    -2.4858 C.3     
  12 N12            1.7130    -2.8266    -0.7305 N.3     
  13 C13            2.2359    -4.1759    -0.4808 C.3     
  14 C14            2.5860    -4.8432    -1.8128 C.3     
  15 C15            1.3311    -4.9156    -2.6872 C.3     
  16 C16            0.7791    -3.5021    -2.8919 C.3     
  17 C17            0.4814    -2.8736    -1.5287 C.3     
  18 C18            0.6906    -6.1456    -4.7415 C.ar    
  19 C19            0.1434    -0.0197     0.4761 C.2     
  20 C20           -1.0248    -0.8024     1.0180 C.3     
  21 C21            1.9930     5.7636    -3.1917 C.3     
  22 C22            2.5919     4.3621    -3.3256 C.3     
  23 C23            1.0128    -6.7009    -5.9734 C.ar    
  24 C24            0.0393    -7.3378    -6.7177 C.ar    
  25 C25           -1.2548    -7.4231    -6.2380 C.ar    
  26 C26           -1.5789    -6.8714    -5.0120 C.ar    
  27 C27           -0.6091    -6.2381    -4.2600 C.ar    
  28 F28           -0.8252    -1.0556     2.3794 F       
  29 F29           -2.2003    -0.0630     0.8487 F       
  30 F30           -1.1334    -2.0152     0.3291 F       
  31 N31            1.6727    -5.5006    -3.9862 N.pl3   
  32 H32            3.3627    -0.3765    -0.4432 H       
  33 H33            3.1144     1.9886    -0.9045 H       
  34 H34            1.1154     5.4195    -0.5144 H       
  35 H35            2.5207     4.3439    -0.7050 H       
  36 H36            2.3522    -2.2557     1.1876 H       
  37 H37            0.5952    -2.4814     1.0145 H       
  38 H38            0.3875     4.2141    -2.8913 H       
  39 H39            3.1304    -4.1099     0.1386 H       
  40 H40            1.4802    -4.7685     0.0348 H       
  41 H41            3.3516    -4.2585    -2.3226 H       
  42 H42            2.9594    -5.8505    -1.6281 H       
  43 H43            0.5793    -5.5325    -2.1951 H       
  44 H44            1.5163    -2.8962    -3.4187 H       
  45 H45           -0.1385    -3.5512    -3.4782 H       
  46 H46           -0.2661    -3.4724    -1.0082 H       
  47 H47            0.1015    -1.8618    -1.6704 H       
  48 H48            1.4846     6.1789    -4.0618 H       
  49 H49            2.5290     6.4829    -2.5724 H       
  50 H50            3.5219     4.1593    -2.7944 H       
  51 H51            2.4775     3.8553    -4.2838 H       
  52 H52            2.0232    -6.6343    -6.3488 H       
  53 H53            0.2890    -7.7695    -7.6757 H       
  54 H54           -2.0143    -7.9215    -6.8222 H       
  55 H55           -2.5907    -6.9395    -4.6404 H       
  56 H56           -0.8628    -5.8074    -3.3027 H       
  57 H57            2.5808    -5.4401    -4.3217 H       
@<TRIPOS>BOND
   1    1   19 1
   2    1    5 1
   3    1    8 2
   4    2    3 1
   5    2   10 1
   6    2   19 2
   7    3    4 2
   8    3   32 1
   9    4    5 1
  10    4   33 1
  11    5    6 1
  12    6    7 2
  13    6    9 1
  14    7    8 1
  15    9   11 1
  16    9   34 1
  17    9   35 1
  18   10   12 1
  19   10   36 1
  20   10   37 1
  21   11   21 1
  22   11   22 1
  23   11   38 1
  24   12   13 1
  25   12   17 1
  26   13   14 1
  27   13   39 1
  28   13   40 1
  29   14   15 1
  30   14   41 1
  31   14   42 1
  32   15   16 1
  33   15   31 1
  34   15   43 1
  35   16   17 1
  36   16   44 1
  37   16   45 1
  38   17   46 1
  39   17   47 1
  40   18   23 ar
  41   18   31 1
  42   18   27 ar
  43   19   20 1
  44   20   28 1
  45   20   29 1
  46   20   30 1
  47   21   22 1
  48   21   48 1
  49   21   49 1
  50   22   50 1
  51   22   51 1
  52   23   24 ar
  53   23   52 1
  54   24   25 ar
  55   24   53 1
  56   25   26 ar
  57   25   54 1
  58   26   27 ar
  59   26   55 1
  60   27   56 1
  61   31   57 1

#	End of record

