#	Name: ASD03240677
#	Creating user name:	WinNT
#	Creation time:	15. 06. 2019 20:35

#	Modifying user name:	WinNT
#	Modification time:	15. 06. 2019 20:35

#	Program:	/corina/corina34_cracker 3.40 0067  02.08.2006

@<TRIPOS>MOLECULE
ASD03240677
  59   64    0    0    0
SMALL
NO_CHARGES


@<TRIPOS>ATOM
   1 C1            -0.8006     0.3140     0.7626 C.2     
   2 N2             0.1081     0.1417    -0.2177 N.am    
   3 O3            -0.6581    -0.2504     1.8292 O.2     
   4 O4            -1.8634     1.1159     0.5620 O.3     
   5 C5             1.3248    -0.6328     0.0392 C.3     
   6 C6             1.0544    -2.0974     0.4247 C.3     
   7 C7             1.1182    -2.4092    -1.0573 C.2     
   8 C8             1.9884    -1.1810    -1.2359 C.3     
   9 O9             0.6704    -3.2653    -1.7817 O.2     
  10 C10            2.2818     0.0700     0.9672 C.ar    
  11 C11            2.1011     1.4107     1.2569 C.ar    
  12 C12            2.9736     2.0596     2.1062 C.ar    
  13 C13            4.0397     1.3610     2.6731 C.ar    
  14 C14            4.2165     0.0094     2.3771 C.ar    
  15 C15            3.3341    -0.6296     1.5305 C.ar    
  16 C16            7.3051     5.9604     4.7430 C.2     
  17 N17            7.8732     5.3565     5.8018 N.2     
  18 C18            7.6307     4.1062     6.1001 C.2     
  19 C19            6.7138     3.3403     5.2584 C.ar    
  20 C20            6.1211     3.9797     4.1484 C.ar    
  21 N21            6.4381     5.3036     3.9123 N.pl3   
  22 C22            6.4146     2.0006     5.5262 C.ar    
  23 C23            5.5316     1.3471     4.6725 C.ar    
  24 C24            4.9801     2.0516     3.5850 C.ar    
  25 N25            5.2870     3.3211     3.3632 N.ar    
  26 N26            6.0305     6.2031     2.9197 N.2     
  27 C27            6.6172     7.3572     3.1284 C.2     
  28 C28            7.4270     7.2533     4.2524 C.2     
  29 C29            5.1760    -0.0735     4.9044 C.ar    
  30 C30            6.1779    -1.0216     5.1059 C.ar    
  31 C31            5.8409    -2.3423     5.3218 C.ar    
  32 C32            4.5120    -2.7261     5.3380 C.ar    
  33 C33            3.5136    -1.7897     5.1383 C.ar    
  34 C34            3.8384    -0.4651     4.9276 C.ar    
  35 C35            6.4454     8.5930     2.2833 C.3     
  36 C36           -2.8014     1.2546     1.6617 C.3     
  37 H37           -0.0435     0.5305    -1.0933 H       
  38 H38            1.8582    -2.5532     1.0028 H       
  39 H39            0.0700    -2.2596     0.8639 H       
  40 H40            1.7553    -0.6062    -2.1322 H       
  41 H41            3.0542    -1.3797    -1.1236 H       
  42 H42            1.2755     1.9505     0.8171 H       
  43 H43            2.8318     3.1063     2.3313 H       
  44 H44            5.0402    -0.5367     2.8126 H       
  45 H45            3.4676    -1.6771     1.3038 H       
  46 H46            8.1013     3.6463     6.9565 H       
  47 H47            6.8557     1.4892     6.3690 H       
  48 H48            8.0398     8.0382     4.6706 H       
  49 H49            7.2157    -0.7232     5.0927 H       
  50 H50            6.6163    -3.0777     5.4780 H       
  51 H51            4.2530    -3.7609     5.5070 H       
  52 H52            2.4778    -2.0952     5.1517 H       
  53 H53            3.0579     0.2659     4.7762 H       
  54 H54            5.6160     9.1852     2.6700 H       
  55 H55            7.3602     9.1848     2.3148 H       
  56 H56            6.2357     8.3029     1.2537 H       
  57 H57           -3.2148     0.2776     1.9121 H       
  58 H58           -2.2852     1.6641     2.5300 H       
  59 H59           -3.6082     1.9263     1.3685 H       
@<TRIPOS>BOND
   1    1    2 am
   2    1    3 2
   3    1    4 1
   4    2    5 1
   5    2   37 1
   6    4   36 1
   7    5    6 1
   8    5    8 1
   9    5   10 1
  10    6    7 1
  11    6   38 1
  12    6   39 1
  13    7    8 1
  14    7    9 2
  15    8   40 1
  16    8   41 1
  17   10   11 ar
  18   10   15 ar
  19   11   12 ar
  20   11   42 1
  21   12   13 ar
  22   12   43 1
  23   13   14 ar
  24   13   24 1
  25   14   15 ar
  26   14   44 1
  27   15   45 1
  28   16   17 1
  29   16   21 1
  30   16   28 2
  31   17   18 2
  32   18   19 1
  33   18   46 1
  34   19   20 ar
  35   19   22 ar
  36   20   21 1
  37   20   25 ar
  38   21   26 1
  39   22   23 ar
  40   22   47 1
  41   23   24 ar
  42   23   29 1
  43   24   25 ar
  44   26   27 2
  45   27   28 1
  46   27   35 1
  47   28   48 1
  48   29   30 ar
  49   29   34 ar
  50   30   31 ar
  51   30   49 1
  52   31   32 ar
  53   31   50 1
  54   32   33 ar
  55   32   51 1
  56   33   34 ar
  57   33   52 1
  58   34   53 1
  59   35   54 1
  60   35   55 1
  61   35   56 1
  62   36   57 1
  63   36   58 1
  64   36   59 1

#	End of record

