#	Name: ASD01180287
#	Creating user name:	WinNT
#	Creation time:	15. 06. 2019 19:07

#	Modifying user name:	WinNT
#	Modification time:	15. 06. 2019 19:07

#	Program:	/corina/corina34_cracker 3.40 0067  02.08.2006

@<TRIPOS>MOLECULE
ASD01180287
  62   64    0    0    0
SMALL
NO_CHARGES


@<TRIPOS>ATOM
   1 C1             0.9681     1.3369    -2.0935 C.2     
   2 C2             1.0668    -0.1611    -2.2246 C.3     
   3 C3             2.3067    -0.6578    -1.4785 C.3     
   4 O4             1.8037     1.9449    -1.4676 O.2     
   5 O5            -0.0452     1.9963    -2.6768 O.3     
   6 C6             3.5202    -4.2485    -1.1538 C.ar    
   7 C7             4.6332    -4.9144    -0.6456 C.ar    
   8 C8             4.7071    -6.2929    -0.7686 C.ar    
   9 C9             3.6648    -6.9576    -1.3958 C.ar    
  10 C10            2.5880    -6.2308    -1.8777 C.ar    
  11 N11            2.5435    -4.9228    -1.7477 N.ar    
  12 C12            3.4231    -2.7756    -1.0249 C.2     
  13 O13            4.2636    -2.1641    -0.3954 O.2     
  14 N14            2.4027    -2.1141    -1.6059 N.am    
  15 C15            5.7415    -4.1468     0.0279 C.3     
  16 C16            5.3238    -3.7968     1.4575 C.3     
  17 C17            5.1511    -5.0832     2.2678 C.3     
  18 C18            5.2743    -4.7667     3.7596 C.3     
  19 N19            6.9543    -4.9678     0.0606 N.pl3   
  20 C20           10.6205    -3.1867     0.1100 C.ar    
  21 N21           10.5459    -4.5080     0.0286 N.ar    
  22 C22            9.3753    -5.1200     0.0102 C.ar    
  23 C23            8.2106    -4.3575     0.0778 C.ar    
  24 C24            8.3294    -2.9714     0.1625 C.ar    
  25 N25            9.5341    -2.4294     0.1759 N.ar    
  26 C26           11.9543    -2.5391     0.1341 C.ar    
  27 C27           12.0569    -1.1516     0.2192 C.ar    
  28 C28           13.3009    -0.5544     0.2412 C.ar    
  29 C29           14.4446    -1.3300     0.1785 C.ar    
  30 C30           14.3488    -2.7073     0.0934 C.ar    
  31 C31           13.1103    -3.3159     0.0774 C.ar    
  32 C32           15.8000    -0.6718     0.2024 C.3     
  33 F33           16.2361    -0.5502     1.5261 F       
  34 F34           16.7102    -1.4523    -0.5185 F       
  35 F35           15.7122     0.5980    -0.3782 F       
  36 C36            3.7719    -5.6823     1.9857 C.3     
  37 H37            0.1765    -0.6227    -1.7974 H       
  38 H38            1.1450    -0.4293    -3.2782 H       
  39 H39            3.1970    -0.1962    -1.9057 H       
  40 H40            2.2285    -0.3896    -0.4249 H       
  41 H41           -0.0663     2.9566    -2.5648 H       
  42 H42            5.5576    -6.8368    -0.3848 H       
  43 H43            3.6919    -8.0314    -1.5080 H       
  44 H44            1.7743    -6.7455    -2.3669 H       
  45 H45            1.7318    -2.6022    -2.1084 H       
  46 H46            5.9382    -3.2300    -0.5279 H       
  47 H47            6.0924    -3.1770     1.9192 H       
  48 H48            4.3805    -3.2509     1.4372 H       
  49 H49            5.9230    -5.7982     1.9831 H       
  50 H50            4.5024    -4.0516     4.0442 H       
  51 H51            5.1513    -5.6831     4.3368 H       
  52 H52            6.2569    -4.3398     3.9605 H       
  53 H53            6.8850    -5.9353     0.0703 H       
  54 H54            9.3216    -6.1966    -0.0566 H       
  55 H55            7.4485    -2.3488     0.2162 H       
  56 H56           11.1646    -0.5451     0.2676 H       
  57 H57           13.3816     0.5206     0.3072 H       
  58 H58           15.2451    -3.3079     0.0443 H       
  59 H59           13.0367    -4.3916     0.0161 H       
  60 H60            3.6645    -5.8590     0.9155 H       
  61 H61            3.6690    -6.6258     2.5218 H       
  62 H62            2.9995    -4.9891     2.3188 H       
@<TRIPOS>BOND
   1    1    2 1
   2    1    4 2
   3    1    5 1
   4    2    3 1
   5    2   37 1
   6    2   38 1
   7    3   14 1
   8    3   39 1
   9    3   40 1
  10    5   41 1
  11    6    7 ar
  12    6   11 ar
  13    6   12 1
  14    7    8 ar
  15    7   15 1
  16    8    9 ar
  17    8   42 1
  18    9   10 ar
  19    9   43 1
  20   10   11 ar
  21   10   44 1
  22   12   13 2
  23   12   14 am
  24   14   45 1
  25   15   16 1
  26   15   19 1
  27   15   46 1
  28   16   17 1
  29   16   47 1
  30   16   48 1
  31   17   18 1
  32   17   36 1
  33   17   49 1
  34   18   50 1
  35   18   51 1
  36   18   52 1
  37   19   23 1
  38   19   53 1
  39   20   21 ar
  40   20   25 ar
  41   20   26 1
  42   21   22 ar
  43   22   23 ar
  44   22   54 1
  45   23   24 ar
  46   24   25 ar
  47   24   55 1
  48   26   27 ar
  49   26   31 ar
  50   27   28 ar
  51   27   56 1
  52   28   29 ar
  53   28   57 1
  54   29   30 ar
  55   29   32 1
  56   30   31 ar
  57   30   58 1
  58   31   59 1
  59   32   33 1
  60   32   34 1
  61   32   35 1
  62   36   60 1
  63   36   61 1
  64   36   62 1

#	End of record

