#	Name: ASD02690011
#	Creating user name:	WinNT
#	Creation time:	15. 06. 2019 20:26

#	Modifying user name:	WinNT
#	Modification time:	15. 06. 2019 20:26

#	Program:	/corina/corina34_cracker 3.40 0067  02.08.2006

@<TRIPOS>MOLECULE
ASD02690011
  70   72    0    0    0
SMALL
NO_CHARGES


@<TRIPOS>ATOM
   1 C1             0.0063     1.4527     0.1870 C.3     
   2 N2             0.0021    -0.0041     0.0020 N.3     
   3 C3             0.5789    -0.3762    -1.2961 C.3     
   4 C4             2.0375     0.0828    -1.3581 C.3     
   5 C5             2.0983     1.6009    -1.1679 C.3     
   6 C6             1.4478     1.9663     0.1693 C.3     
   7 C7             5.2100     3.8499    -1.5499 C.ar    
   8 C8             3.8744     3.4288    -1.5489 C.ar    
   9 C9             3.5364     2.0513    -1.1680 C.2     
  10 C10            5.5202     5.1372    -1.9059 C.ar    
  11 C11            4.5111     6.0243    -2.2652 C.ar    
  12 C12            3.1831     5.6110    -2.2663 C.ar    
  13 C13            2.8622     4.3259    -1.9119 C.ar    
  14 C14           -1.3536    -0.5498     0.1516 C.3     
  15 C15           -1.3291    -2.0576    -0.1092 C.3     
  16 N16           -2.6802    -2.6070     0.0607 N.3     
  17 C17           -3.1637    -2.4124     1.4336 C.3     
  18 C18           -3.2430    -0.9152     1.7405 C.3     
  19 C19           -1.8546    -0.2911     1.5751 C.3     
  20 C20           -2.7226    -4.0262    -0.3161 C.3     
  21 C21           -4.0457    -4.6167     0.0984 C.ar    
  22 C22           -5.1176    -4.5915    -0.7742 C.ar    
  23 C23           -6.3312    -5.1331    -0.3940 C.ar    
  24 C24           -6.4729    -5.7003     0.8586 C.ar    
  25 C25           -5.4008    -5.7264     1.7309 C.ar    
  26 C26           -4.1859    -5.1887     1.3490 C.ar    
  27 O27           -0.9517    -0.8795     2.5135 O.3     
  28 O28            4.4147     1.2762    -0.8536 O.2     
  29 O29            4.8232     7.2970    -2.6161 O.3     
  30 C30            3.7386     8.1558    -2.9740 C.3     
  31 H31           -0.5566     1.9228    -0.6193 H       
  32 H32           -0.4551     1.6987     1.1434 H       
  33 H33            0.5333    -1.4585    -1.4170 H       
  34 H34            0.0133     0.1025    -2.0955 H       
  35 H35            2.6068    -0.4061    -0.5675 H       
  36 H36            2.4607    -0.1796    -2.3277 H       
  37 H37            1.5618     2.0916    -1.9800 H       
  38 H38            1.4497     3.0495     0.2910 H       
  39 H39            2.0078     1.5070     0.9839 H       
  40 H40            5.9939     3.1631    -1.2665 H       
  41 H41            6.5499     5.4629    -1.9070 H       
  42 H42            2.4031     6.3040    -2.5453 H       
  43 H43            1.8307     4.0060    -1.9131 H       
  44 H44           -2.0208    -0.0677    -0.5629 H       
  45 H45           -0.9863    -2.2446    -1.1269 H       
  46 H46           -0.6505    -2.5372     0.5962 H       
  47 H47           -4.1535    -2.8572     1.5365 H       
  48 H48           -2.4766    -2.8904     2.1318 H       
  49 H49           -3.9405    -0.4390     1.0514 H       
  50 H50           -3.5870    -0.7714     2.7647 H       
  51 H51           -1.9149     0.7830     1.7505 H       
  52 H52           -2.6056    -4.1191    -1.3958 H       
  53 H53           -1.9141    -4.5593     0.1842 H       
  54 H54           -5.0069    -4.1483    -1.7528 H       
  55 H55           -7.1688    -5.1127    -1.0754 H       
  56 H56           -7.4213    -6.1228     1.1560 H       
  57 H57           -5.5116    -6.1693     2.7096 H       
  58 H58           -3.3483    -5.2090     2.0305 H       
  59 H59           -1.2104    -0.7582     3.4374 H       
  60 H60            4.1257     9.1415    -3.2323 H       
  61 H61            3.2108     7.7369    -3.8307 H       
  62 H62            3.0521     8.2442    -2.1320 H       
  63 C63           12.8493    18.2529     8.4513 C.1     
  64 C64           12.8652    17.0790     8.4448 C.1     
  65 O65           12.8309    19.6077     8.4587 O.3     
  66 O66           12.8836    15.7241     8.4374 O.3     
  67 O67           14.1647    20.2234     8.4493 O.3     
  68 O68           11.5499    15.1084     8.4468 O.3     
  69 H69           14.1515    21.1903     8.4546 H       
  70 H70           11.5630    14.1415     8.4415 H       
@<TRIPOS>BOND
   1    1    2 1
   2    1    6 1
   3    1   31 1
   4    1   32 1
   5    2    3 1
   6    2   14 1
   7    3    4 1
   8    3   33 1
   9    3   34 1
  10    4    5 1
  11    4   35 1
  12    4   36 1
  13    5    6 1
  14    5    9 1
  15    5   37 1
  16    6   38 1
  17    6   39 1
  18    7    8 ar
  19    7   10 ar
  20    7   40 1
  21    8    9 1
  22    8   13 ar
  23    9   28 2
  24   10   11 ar
  25   10   41 1
  26   11   12 ar
  27   11   29 1
  28   12   13 ar
  29   12   42 1
  30   13   43 1
  31   14   15 1
  32   14   19 1
  33   14   44 1
  34   15   16 1
  35   15   45 1
  36   15   46 1
  37   16   17 1
  38   16   20 1
  39   17   18 1
  40   17   47 1
  41   17   48 1
  42   18   19 1
  43   18   49 1
  44   18   50 1
  45   19   27 1
  46   19   51 1
  47   20   21 1
  48   20   52 1
  49   20   53 1
  50   21   22 ar
  51   21   26 ar
  52   22   23 ar
  53   22   54 1
  54   23   24 ar
  55   23   55 1
  56   24   25 ar
  57   24   56 1
  58   25   26 ar
  59   25   57 1
  60   26   58 1
  61   27   59 1
  62   29   30 1
  63   30   60 1
  64   30   61 1
  65   30   62 1
  66   63   64 3
  67   63   65 1
  68   64   66 1
  69   65   67 1
  70   66   68 1
  71   67   69 1
  72   68   70 1

#	End of record

