#	Name: ASD08830158
#	Creating user name:	WinNT
#	Creation time:	15. 06. 2019 21:19

#	Modifying user name:	WinNT
#	Modification time:	15. 06. 2019 21:19

#	Program:	/corina/corina34_cracker 3.40 0067  02.08.2006

@<TRIPOS>MOLECULE
ASD08830158
  56   59    0    0    0
SMALL
NO_CHARGES


@<TRIPOS>ATOM
   1 C1            -0.0194     1.4667     0.0119 C.ar    
   2 C2             0.0002    -0.0051     0.0080 C.2     
   3 C3             1.3151    -0.7410    -0.0120 C.3     
   4 C4             1.0557    -2.2489    -0.0122 C.3     
   5 N5             2.3375    -2.9663    -0.0317 N.3     
   6 O6            -1.0416    -0.6253     0.0208 O.2     
   7 C7             1.1811     2.1847    -0.0029 C.ar    
   8 C8            -0.0408     4.2446     0.0201 C.ar    
   9 C9            -1.2455     3.5412     0.0282 C.ar    
  10 C10            2.1404    -4.4036     0.2058 C.3     
  11 C11            1.1617     3.5644     0.0013 C.ar    
  12 C12           -1.2369     2.1512     0.0246 C.ar    
  13 C13            3.4907    -5.1198     0.1180 C.3     
  14 O14            4.3968    -4.5350     1.0574 O.3     
  15 C15            4.6123    -3.1358     0.8549 C.3     
  16 C16            3.2734    -2.3995     0.9502 C.3     
  17 C17           -2.5346     4.2761     0.0489 C.ar    
  18 C18           -3.7527     3.5883     0.0573 C.ar    
  19 C19           -4.9299     4.3062     0.0766 C.ar    
  20 N20           -4.9204     5.6257     0.0866 N.ar    
  21 C21           -3.7913     6.3178     0.0792 C.ar    
  22 C22           -2.5632     5.6708     0.0663 C.ar    
  23 N23           -3.8366     7.7105     0.0899 N.am    
  24 C24           -5.0210     8.3470    -0.0025 C.2     
  25 C25           -5.0811     9.8184     0.1239 C.ar    
  26 O26           -6.0398     7.7109    -0.1897 O.2     
  27 C27           -6.3062    10.4807     0.0287 C.ar    
  28 C28           -3.9137    10.5513     0.3446 C.ar    
  29 C29           -3.9768    11.9244     0.4616 C.ar    
  30 C30           -5.1937    12.5752     0.3610 C.ar    
  31 C31           -6.3552    11.8543     0.1475 C.ar    
  32 H32            1.8708    -0.4679    -0.9091 H       
  33 H33            1.8954    -0.4723     0.8707 H       
  34 H34            0.5000    -2.5220     0.8849 H       
  35 H35            0.4755    -2.5176    -0.8949 H       
  36 H36            2.1242     1.6585    -0.0173 H       
  37 H37           -0.0481     5.3246     0.0226 H       
  38 H38            1.7128    -4.5535     1.1972 H       
  39 H39            1.4644    -4.8077    -0.5477 H       
  40 H40            2.0906     4.1151    -0.0098 H       
  41 H41           -2.1674     1.6030     0.0312 H       
  42 H42            3.3580    -6.1765     0.3497 H       
  43 H43            3.8933    -5.0152    -0.8895 H       
  44 H44            5.2908    -2.7577     1.6196 H       
  45 H45            5.0475    -2.9735    -0.1312 H       
  46 H46            3.4245    -1.3407     0.7401 H       
  47 H47            2.8639    -2.5173     1.9535 H       
  48 H48           -3.7710     2.5085     0.0486 H       
  49 H49           -5.8734     3.7808     0.0832 H       
  50 H50           -1.6444     6.2384     0.0603 H       
  51 H51           -3.0156     8.2218     0.1639 H       
  52 H52           -7.2135     9.9192    -0.1379 H       
  53 H53           -2.9633    10.0445     0.4241 H       
  54 H54           -3.0744    12.4927     0.6324 H       
  55 H55           -5.2376    13.6503     0.4540 H       
  56 H56           -7.3018    12.3684     0.0695 H       
@<TRIPOS>BOND
   1    1    2 1
   2    1    7 ar
   3    1   12 ar
   4    2    3 1
   5    2    6 2
   6    3    4 1
   7    3   32 1
   8    3   33 1
   9    4    5 1
  10    4   34 1
  11    4   35 1
  12    5   10 1
  13    5   16 1
  14    7   11 ar
  15    7   36 1
  16    8    9 ar
  17    8   11 ar
  18    8   37 1
  19    9   12 ar
  20    9   17 1
  21   10   13 1
  22   10   38 1
  23   10   39 1
  24   11   40 1
  25   12   41 1
  26   13   14 1
  27   13   42 1
  28   13   43 1
  29   14   15 1
  30   15   16 1
  31   15   44 1
  32   15   45 1
  33   16   46 1
  34   16   47 1
  35   17   18 ar
  36   17   22 ar
  37   18   19 ar
  38   18   48 1
  39   19   20 ar
  40   19   49 1
  41   20   21 ar
  42   21   22 ar
  43   21   23 1
  44   22   50 1
  45   23   24 am
  46   23   51 1
  47   24   25 1
  48   24   26 2
  49   25   27 ar
  50   25   28 ar
  51   27   31 ar
  52   27   52 1
  53   28   29 ar
  54   28   53 1
  55   29   30 ar
  56   29   54 1
  57   30   31 ar
  58   30   55 1
  59   31   56 1

#	End of record

