#	Name: ASD01900993
#	Creating user name:	WinNT
#	Creation time:	15. 06. 2019 19:53

#	Modifying user name:	WinNT
#	Modification time:	15. 06. 2019 19:53

#	Program:	/corina/corina34_cracker 3.40 0067  02.08.2006

@<TRIPOS>MOLECULE
ASD01900993
  63   67    0    0    0
SMALL
NO_CHARGES


@<TRIPOS>ATOM
   1 C1             0.4480     0.9258     0.1747 C.ar    
   2 C2             0.5556    -0.4345     0.0916 C.ar    
   3 C3             1.7755    -1.0311    -0.2156 C.ar    
   4 C4             2.9032    -0.2519    -0.4351 C.ar    
   5 C5             2.8075     1.1242    -0.3482 C.ar    
   6 C6             1.5687     1.7237    -0.0515 C.ar    
   7 N7             3.9106     1.9488    -0.5402 N.pl3   
   8 C8             3.6970     3.3069    -1.0532 C.3     
   9 N9             2.5516     3.9267    -0.3859 N.am    
  10 C10            1.4982     3.1914     0.0213 C.2     
  11 C11            2.5506     5.3097    -0.1651 C.ar    
  12 C12            3.2964     5.8476     0.8755 C.ar    
  13 C13            3.2948     7.2113     1.0926 C.ar    
  14 C14            2.5482     8.0438     0.2718 C.ar    
  15 C15            1.8029     7.5072    -0.7679 C.ar    
  16 C16            1.8083     6.1443    -0.9901 C.ar    
  17 O17            0.4968     3.7368     0.4450 O.2     
  18 O18            2.5464     9.3864     0.4867 O.3     
  19 C19            4.9511     4.1477    -0.7961 C.3     
  20 C20            3.4368     3.2438    -2.5608 C.3     
  21 C21            3.2817     4.6654    -3.1059 C.3     
  22 N22            4.5036     5.4327    -2.8329 N.3     
  23 C23            4.7508     5.5441    -1.3898 C.3     
  24 C24            4.4435     6.7594    -3.4607 C.3     
  25 C25            5.6803     7.5418    -3.1012 C.ar    
  26 C26            1.8452    10.1943    -0.4608 C.3     
  27 C27            6.7880     7.5009    -3.9296 C.ar    
  28 C28            7.9274     8.2165    -3.6074 C.ar    
  29 C29            7.9662     8.9763    -2.4565 C.ar    
  30 C30            6.8522     9.0221    -1.6163 C.ar    
  31 C31            5.7035     8.3015    -1.9503 C.ar    
  32 C32            6.8854     9.8087    -0.4201 C.1     
  33 O33            1.8628    -2.3828    -0.3004 O.3     
  34 C34            0.6659    -3.1264    -0.0629 C.3     
  35 N35            6.9117    10.4327     0.5288 N.1     
  36 H36           -0.5027     1.3808     0.4104 H       
  37 H37           -0.3132    -1.0518     0.2660 H       
  38 H38            3.8485    -0.7176    -0.6716 H       
  39 H39            4.8050     1.6322    -0.3384 H       
  40 H40            3.8772     5.1995     1.5150 H       
  41 H41            3.8748     7.6297     1.9018 H       
  42 H42            1.2215     8.1560    -1.4063 H       
  43 H43            1.2316     5.7272    -1.8023 H       
  44 H44            5.1210     4.2293     0.2775 H       
  45 H45            5.8114     3.6718    -1.2667 H       
  46 H46            4.2761     2.7541    -3.0548 H       
  47 H47            2.5232     2.6799    -2.7493 H       
  48 H48            3.1109     4.6252    -4.1817 H       
  49 H49            2.4334     5.1493    -2.6217 H       
  50 H50            3.8969     6.0234    -0.9110 H       
  51 H51            5.6457     6.1428    -1.2197 H       
  52 H52            4.3867     6.6469    -4.5434 H       
  53 H53            3.5610     7.2906    -3.1038 H       
  54 H54            2.3326    10.1199    -1.4329 H       
  55 H55            0.8155     9.8465    -0.5431 H       
  56 H56            1.8527    11.2325    -0.1291 H       
  57 H57            6.7631     6.9074    -4.8315 H       
  58 H58            8.7885     8.1798    -4.2582 H       
  59 H59            8.8564     9.5342    -2.2060 H       
  60 H60            4.8368     8.3358    -1.3068 H       
  61 H61            0.8743    -4.1917    -0.1616 H       
  62 H62            0.3030    -2.9189     0.9438 H       
  63 H63           -0.0927    -2.8357    -0.7897 H       
@<TRIPOS>BOND
   1    1    2 ar
   2    1    6 ar
   3    1   36 1
   4    2    3 ar
   5    2   37 1
   6    3    4 ar
   7    3   33 1
   8    4    5 ar
   9    4   38 1
  10    5    7 1
  11    5    6 ar
  12    6   10 1
  13    7    8 1
  14    7   39 1
  15    8    9 1
  16    8   20 1
  17    8   19 1
  18    9   10 am
  19    9   11 1
  20   10   17 2
  21   11   12 ar
  22   11   16 ar
  23   12   13 ar
  24   12   40 1
  25   13   14 ar
  26   13   41 1
  27   14   15 ar
  28   14   18 1
  29   15   16 ar
  30   15   42 1
  31   16   43 1
  32   18   26 1
  33   19   23 1
  34   19   44 1
  35   19   45 1
  36   20   21 1
  37   20   46 1
  38   20   47 1
  39   21   22 1
  40   21   48 1
  41   21   49 1
  42   22   23 1
  43   22   24 1
  44   23   50 1
  45   23   51 1
  46   24   25 1
  47   24   52 1
  48   24   53 1
  49   25   27 ar
  50   25   31 ar
  51   26   54 1
  52   26   55 1
  53   26   56 1
  54   27   28 ar
  55   27   57 1
  56   28   29 ar
  57   28   58 1
  58   29   30 ar
  59   29   59 1
  60   30   31 ar
  61   30   32 1
  62   31   60 1
  63   32   35 3
  64   33   34 1
  65   34   61 1
  66   34   62 1
  67   34   63 1

#	End of record

