#	Name: ASD01911542
#	Creating user name:	WinNT
#	Creation time:	15. 06. 2019 19:57

#	Modifying user name:	WinNT
#	Modification time:	15. 06. 2019 19:57

#	Program:	/corina/corina34_cracker 3.40 0067  02.08.2006

@<TRIPOS>MOLECULE
ASD01911542
  34   36    0    0    0
SMALL
NO_CHARGES


@<TRIPOS>ATOM
   1 C1            -0.0144     1.2130     0.0087 C.2     
   2 O2            -0.0080    -0.0042     0.0109 O.2     
   3 N3             1.1491     1.8929    -0.0082 N.am    
   4 C4             1.2870     3.3527    -0.1163 C.3     
   5 C5             2.7970     3.6712    -0.1211 C.3     
   6 C6             3.4326     2.3341    -0.5853 C.3     
   7 C7             2.4942     1.2967     0.0852 C.3     
   8 S8            -1.4825     3.6855     0.1519 S.3     
   9 C9            -3.2314     3.4944     0.0685 C.2     
  10 N10           -3.5257     2.2231    -0.0456 N.2     
  11 C11           -2.5330     1.3797    -0.0752 C.2     
  12 C12           -1.2870     1.9389     0.0184 C.2     
  13 C13           -4.1836     4.5628     0.1178 C.1     
  14 C14           -4.9643     5.4387     0.1583 C.1     
  15 C15           -5.9165     6.5071     0.2076 C.ar    
  16 C16           -7.2853     6.2324     0.1323 C.ar    
  17 C17           -8.1961     7.2666     0.1804 C.ar    
  18 C18           -7.7584     8.5738     0.3025 C.ar    
  19 C19           -6.4051     8.8538     0.3772 C.ar    
  20 C20           -5.4823     7.8299     0.3371 C.ar    
  21 H21            0.8318     3.7004    -1.0436 H       
  22 H22            0.8093     3.8343     0.7369 H       
  23 H23            3.0203     4.4702    -0.8280 H       
  24 H24            3.1390     3.9337     0.8800 H       
  25 H25            3.4063     2.2452    -1.6714 H       
  26 H26            4.4518     2.2354    -0.2115 H       
  27 H27            2.7721     1.1490     1.1287 H       
  28 H28            2.5279     0.3505    -0.4548 H       
  29 H29           -2.6827     0.3141    -0.1667 H       
  30 H30           -7.6284     5.2128     0.0363 H       
  31 H31           -9.2538     7.0560     0.1223 H       
  32 H32           -8.4765     9.3797     0.3393 H       
  33 H33           -6.0710     9.8765     0.4716 H       
  34 H34           -4.4267     8.0495     0.4003 H       
@<TRIPOS>BOND
   1    1    2 2
   2    1    3 am
   3    1   12 1
   4    3    4 1
   5    3    7 1
   6    4    5 1
   7    4   21 1
   8    4   22 1
   9    5    6 1
  10    5   23 1
  11    5   24 1
  12    6    7 1
  13    6   25 1
  14    6   26 1
  15    7   27 1
  16    7   28 1
  17    8    9 1
  18    8   12 1
  19    9   10 2
  20    9   13 1
  21   10   11 1
  22   11   12 2
  23   11   29 1
  24   13   14 3
  25   14   15 1
  26   15   16 ar
  27   15   20 ar
  28   16   17 ar
  29   16   30 1
  30   17   18 ar
  31   17   31 1
  32   18   19 ar
  33   18   32 1
  34   19   20 ar
  35   19   33 1
  36   20   34 1

#	End of record

