#	Name: ASD01140045
#	Creating user name:	WinNT
#	Creation time:	15. 06. 2019 18:59

#	Modifying user name:	WinNT
#	Modification time:	15. 06. 2019 18:59

#	Program:	/corina/corina34_cracker 3.40 0067  02.08.2006

@<TRIPOS>MOLECULE
ASD01140045
  43   46    0    0    0
SMALL
NO_CHARGES


@<TRIPOS>ATOM
   1 C1            -0.0164     1.3560     0.0095 C.2     
   2 N2             0.0021    -0.0041     0.0020 N.2     
   3 C3             1.2393    -0.4126    -0.0045 C.2     
   4 N4             2.0607     0.6724     0.0116 N.pl3   
   5 C5             3.4565     0.6679     0.0561 C.ar    
   6 C6             4.2217     1.6282    -0.6106 C.ar    
   7 C7             3.6365     2.6613    -1.4734 C.2     
   8 N8             2.5740     3.3573    -1.2650 N.2     
   9 C9             1.7746     3.2010    -0.0449 C.3     
  10 C10            1.2774     1.7783    -0.0006 C.2     
  11 C11            5.6156     1.6007    -0.4755 C.ar    
  12 C12            6.2295     0.6111     0.2821 C.ar    
  13 C13            5.4537    -0.3635     0.9154 C.ar    
  14 C14            4.0825    -0.3288     0.8009 C.ar    
  15 C15           -1.2133     2.2121     0.0201 C.2     
  16 O16           -1.0952     3.4218     0.0256 O.2     
  17 O17           -2.4406     1.6547     0.0237 O.3     
  18 C18            4.3576     2.9372    -2.7396 C.ar    
  19 N19            5.4628     2.2615    -3.0281 N.ar    
  20 C20            6.1319     2.4756    -4.1409 C.ar    
  21 C21            5.7035     3.4208    -5.0576 C.ar    
  22 C22            4.5533     4.1494    -4.7955 C.ar    
  23 C23            3.8661     3.8992    -3.6187 C.ar    
  24 C24            7.6553     0.5895     0.4135 C.1     
  25 C25            8.8242     0.5718     0.5212 C.1     
  26 C26           -3.5757     2.5600     0.0342 C.3     
  27 C27           -4.8739     1.7502     0.0369 C.3     
  28 H28            1.5604    -1.4437    -0.0198 H       
  29 H29            2.3925     3.4036     0.8299 H       
  30 H30            0.9284     3.8876    -0.0673 H       
  31 H31            6.2169     2.3534    -0.9636 H       
  32 H32            5.9290    -1.1424     1.4931 H       
  33 H33            3.4858    -1.0823     1.2936 H       
  34 H34            7.0276     1.9065    -4.3416 H       
  35 H35            6.2600     3.5892    -5.9678 H       
  36 H36            4.1990     4.8924    -5.4946 H       
  37 H37            2.9644     4.4454    -3.3844 H       
  38 H38            9.8696     0.5560     0.6176 H       
  39 H39           -3.5348     3.1837     0.9272 H       
  40 H40           -3.5441     3.1928    -0.8528 H       
  41 H41           -4.9056     1.1175     0.9238 H       
  42 H42           -5.7260     2.4299     0.0448 H       
  43 H43           -4.9149     1.1265    -0.8561 H       
@<TRIPOS>BOND
   1    1    2 1
   2    1   10 2
   3    1   15 1
   4    2    3 2
   5    3    4 1
   6    3   28 1
   7    4    5 1
   8    4   10 1
   9    5    6 ar
  10    5   14 ar
  11    6    7 1
  12    6   11 ar
  13    7    8 2
  14    7   18 1
  15    8    9 1
  16    9   10 1
  17    9   29 1
  18    9   30 1
  19   11   12 ar
  20   11   31 1
  21   12   13 ar
  22   12   24 1
  23   13   14 ar
  24   13   32 1
  25   14   33 1
  26   15   16 2
  27   15   17 1
  28   17   26 1
  29   18   19 ar
  30   18   23 ar
  31   19   20 ar
  32   20   21 ar
  33   20   34 1
  34   21   22 ar
  35   21   35 1
  36   22   23 ar
  37   22   36 1
  38   23   37 1
  39   24   25 3
  40   25   38 1
  41   26   27 1
  42   26   39 1
  43   26   40 1
  44   27   41 1
  45   27   42 1
  46   27   43 1

#	End of record

