#	Name: ASD04230010
#	Creating user name:	WinNT
#	Creation time:	15. 06. 2019 20:48

#	Modifying user name:	WinNT
#	Modification time:	15. 06. 2019 20:48

#	Program:	/corina/corina34_cracker 3.40 0067  02.08.2006

@<TRIPOS>MOLECULE
ASD04230010
  53   57    0    0    0
SMALL
NO_CHARGES


@<TRIPOS>ATOM
   1 C1            -0.0134     1.3897    -0.0302 C.ar    
   2 C2             0.0045    -0.0078    -0.0342 C.ar    
   3 C3            -1.1757    -0.7174    -0.0326 C.ar    
   4 C4            -2.4020    -0.0330    -0.0372 C.ar    
   5 C5            -2.4186     1.3752     0.0001 C.ar    
   6 C6            -1.2190     2.0771    -0.0050 C.ar    
   7 C7            -3.6222    -0.7502    -0.0744 C.2     
   8 C8            -4.7952    -0.0314    -0.2797 C.2     
   9 C9            -4.6691     1.4236    -0.4739 C.2     
  10 O10           -3.5967     2.0427     0.0682 O.3     
  11 C11           -6.1074    -0.6965    -0.3024 C.2     
  12 N12           -7.2264     0.0272    -0.5036 N.am    
  13 O13           -6.1823    -1.8997    -0.1396 O.2     
  14 C14           -8.4609    -0.6164    -0.6375 C.ar    
  15 C15           -9.6132    -0.0198    -0.1407 C.ar    
  16 C16          -10.8349    -0.6529    -0.2713 C.ar    
  17 C17          -10.9172    -1.8810    -0.8964 C.ar    
  18 C18           -9.7663    -2.4869    -1.3979 C.ar    
  19 C19           -8.5361    -1.8477    -1.2716 C.ar    
  20 C20           -9.8530    -3.8075    -2.0693 C.2     
  21 O21           -5.5034     2.0479    -1.1026 O.2     
  22 O22            1.1927    -0.6698    -0.0402 O.3     
  23 C23          -11.0001    -4.4882    -2.3457 C.2     
  24 N24          -10.6375    -5.6512    -2.9653 N.pl3   
  25 C25           -9.2690    -5.6544    -3.0537 C.2     
  26 N26           -8.8148    -4.5334    -2.5135 N.2     
  27 C27          -11.3643    -6.6979    -3.4557 C.2     
  28 C28          -10.7495    -7.7506    -4.0342 C.2     
  29 C29           -9.3490    -7.7835    -4.1393 C.2     
  30 C30           -8.6124    -6.7472    -3.6564 C.2     
  31 O31           -1.2265     3.4379     0.0047 O.3     
  32 C32           -1.2194     4.0775     1.2825 C.3     
  33 O33            1.1567     2.0797    -0.0454 O.3     
  34 C34            1.6969     2.4126    -1.3258 C.3     
  35 H35           -1.1583    -1.7972    -0.0280 H       
  36 H36           -3.6416    -1.8226     0.0523 H       
  37 H37           -7.1756     0.9945    -0.5554 H       
  38 H38           -9.5541     0.9408     0.3492 H       
  39 H39          -11.7277    -0.1856     0.1172 H       
  40 H40          -11.8735    -2.3727    -0.9966 H       
  41 H41           -7.6417    -2.3132    -1.6585 H       
  42 H42            1.5394    -0.8637     0.8415 H       
  43 H43          -12.0065    -4.1690    -2.1182 H       
  44 H44          -12.4415    -6.6833    -3.3795 H       
  45 H45          -11.3367    -8.5718    -4.4178 H       
  46 H46           -8.8595    -8.6274    -4.6026 H       
  47 H47           -7.5351    -6.7621    -3.7319 H       
  48 H48           -2.1030     3.7757     1.8449 H       
  49 H49           -0.3231     3.7857     1.8300 H       
  50 H50           -1.2265     5.1591     1.1475 H       
  51 H51            1.8885     1.4987    -1.8881 H       
  52 H52            0.9846     3.0320    -1.8708 H       
  53 H53            2.6297     2.9611    -1.1951 H       
@<TRIPOS>BOND
   1    1    2 ar
   2    1   33 1
   3    1    6 ar
   4    2    3 ar
   5    2   22 1
   6    3    4 ar
   7    3   35 1
   8    4    5 ar
   9    4    7 1
  10    5    6 ar
  11    5   10 1
  12    6   31 1
  13    7    8 2
  14    7   36 1
  15    8    9 1
  16    8   11 1
  17    9   10 1
  18    9   21 2
  19   11   12 am
  20   11   13 2
  21   12   14 1
  22   12   37 1
  23   14   15 ar
  24   14   19 ar
  25   15   16 ar
  26   15   38 1
  27   16   17 ar
  28   16   39 1
  29   17   18 ar
  30   17   40 1
  31   18   19 ar
  32   18   20 1
  33   19   41 1
  34   20   23 2
  35   20   26 1
  36   22   42 1
  37   23   24 1
  38   23   43 1
  39   24   25 1
  40   24   27 1
  41   25   26 2
  42   25   30 1
  43   27   28 2
  44   27   44 1
  45   28   29 1
  46   28   45 1
  47   29   30 2
  48   29   46 1
  49   30   47 1
  50   31   32 1
  51   32   48 1
  52   32   49 1
  53   32   50 1
  54   33   34 1
  55   34   51 1
  56   34   52 1
  57   34   53 1

#	End of record

