#	Name: ASD08151101
#	Creating user name:	WinNT
#	Creation time:	15. 06. 2019 21:17

#	Modifying user name:	WinNT
#	Modification time:	15. 06. 2019 21:17

#	Program:	/corina/corina34_cracker 3.40 0067  02.08.2006

@<TRIPOS>MOLECULE
ASD08151101
  27   29    0    0    0
SMALL
NO_CHARGES


@<TRIPOS>ATOM
   1 N1            -0.0156     1.2972     0.0092 N.2     
   2 C2             0.0021    -0.0041     0.0020 C.2     
   3 N3             1.2880    -0.4545    -0.0127 N.pl3   
   4 C4             2.1095     0.6446    -0.0146 C.ar    
   5 N5             3.4219     0.8350    -0.0261 N.ar    
   6 C6             3.9200     2.0540    -0.0243 C.ar    
   7 N7             3.1555     3.1307    -0.0108 N.ar    
   8 C8             1.8355     3.0369     0.0013 C.ar    
   9 C9             1.2560     1.7660    -0.0004 C.ar    
  10 C10            1.7153    -1.8557    -0.0235 C.3     
  11 C11            1.9980    -2.3144     1.4094 C.3     
  12 C12            2.3858    -3.7962     1.3958 C.3     
  13 C13            1.2602    -4.6012     0.7391 C.3     
  14 C14            1.0060    -4.0542    -0.6680 C.3     
  15 O15            0.6807    -2.6651    -0.5860 O.3     
  16 Br16           0.7571     4.5900     0.0212 Br      
  17 H17           -0.8745    -0.6349     0.0073 H       
  18 H18            4.9929     2.1777    -0.0339 H       
  19 H19            2.6208    -1.9550    -0.6223 H       
  20 H20            2.8170    -1.7274     1.8249 H       
  21 H21            1.1046    -2.1773     2.0187 H       
  22 H22            3.3069    -3.9269     0.8277 H       
  23 H23            2.5340    -4.1438     2.4182 H       
  24 H24            1.5515    -5.6496     0.6752 H       
  25 H25            0.3519    -4.5103     1.3348 H       
  26 H26            1.9021    -4.1825    -1.2752 H       
  27 H27            0.1771    -4.5954    -1.1242 H       
@<TRIPOS>BOND
   1    1    2 2
   2    1    9 1
   3    2    3 1
   4    2   17 1
   5    3    4 1
   6    3   10 1
   7    4    5 ar
   8    4    9 ar
   9    5    6 ar
  10    6    7 ar
  11    6   18 1
  12    7    8 ar
  13    8    9 ar
  14    8   16 1
  15   10   11 1
  16   10   15 1
  17   10   19 1
  18   11   12 1
  19   11   20 1
  20   11   21 1
  21   12   13 1
  22   12   22 1
  23   12   23 1
  24   13   14 1
  25   13   24 1
  26   13   25 1
  27   14   15 1
  28   14   26 1
  29   14   27 1

#	End of record

