#	Name: ASD04230107
#	Creating user name:	WinNT
#	Creation time:	15. 06. 2019 20:48

#	Modifying user name:	WinNT
#	Modification time:	15. 06. 2019 20:48

#	Program:	/corina/corina34_cracker 3.40 0067  02.08.2006

@<TRIPOS>MOLECULE
ASD04230107
  58   62    0    0    0
SMALL
NO_CHARGES


@<TRIPOS>ATOM
   1 C1             1.3674     3.6343     2.1529 C.ar    
   2 C2             2.3386     4.3656     2.8214 C.ar    
   3 C3             3.6366     3.9426     2.8406 C.ar    
   4 C4             3.9985     2.7644     2.1717 C.ar    
   5 C5             3.0122     2.0018     1.5202 C.ar    
   6 C6             1.6949     2.4559     1.5059 C.ar    
   7 C7             5.3505     2.3335     2.1513 C.2     
   8 C8             5.6840     1.2779     1.3130 C.2     
   9 C9             4.6060     0.7080     0.4843 C.2     
  10 O10            3.3357     0.8258     0.9310 O.3     
  11 C11            7.0573     0.7501     1.2538 C.2     
  12 N12            7.3500    -0.2756     0.4300 N.am    
  13 O13            7.9275     1.2397     1.9485 O.2     
  14 C14            8.6732    -0.7083     0.2949 C.ar    
  15 C15            8.9449    -2.0508     0.0613 C.ar    
  16 C16           10.2513    -2.4820    -0.0723 C.ar    
  17 C17           11.2931    -1.5817     0.0257 C.ar    
  18 C18           11.0298    -0.2330     0.2595 C.ar    
  19 C19            9.7143     0.2034     0.3884 C.ar    
  20 C20           12.1488     0.7360     0.3650 C.ar    
  21 O21            4.8520     0.1496    -0.5685 O.2     
  22 O22            0.7346     1.7429     0.8592 O.3     
  23 C23           12.2746     1.7630    -0.5679 C.ar    
  24 C24           13.3171     2.6619    -0.4647 C.ar    
  25 C25           14.2360     2.5441     0.5622 C.ar    
  26 C26           14.1158     1.5262     1.4914 C.ar    
  27 C27           13.0742     0.6255     1.4011 C.ar    
  28 S28           12.9223    -0.6699     2.5857 S.o2    
  29 N29           11.5382    -0.3849     3.4491 N.am    
  30 O30           12.6966    -1.8635     1.8484 O.2     
  31 O31           14.0025    -0.5107     3.4951 O.2     
  32 C32           10.2460    -0.9372     3.0128 C.3     
  33 C33            9.5973    -1.6495     4.2052 C.3     
  34 O34            9.5622    -0.7591     5.3231 O.3     
  35 C35           10.8514    -0.3508     5.7869 C.3     
  36 C36           11.5653     0.4232     4.6786 C.3     
  37 H37            0.3461     3.9854     2.1412 H       
  38 H38            2.0654     5.2780     3.3308 H       
  39 H39            4.3840     4.5149     3.3701 H       
  40 H40            6.0968     2.8119     2.7682 H       
  41 H41            6.6431    -0.7137    -0.0692 H       
  42 H42            8.1334    -2.7591    -0.0158 H       
  43 H43           10.4575    -3.5265    -0.2534 H       
  44 H44           12.3127    -1.9225    -0.0785 H       
  45 H45            9.5053     1.2475     0.5693 H       
  46 H46            0.2930     1.0849     1.4133 H       
  47 H47           11.5580     1.8555    -1.3707 H       
  48 H48           13.4157     3.4584    -1.1874 H       
  49 H49           15.0505     3.2491     0.6388 H       
  50 H50           14.8361     1.4388     2.2913 H       
  51 H51            9.5983    -0.1300     2.6708 H       
  52 H52           10.4056    -1.6488     2.2027 H       
  53 H53            8.5815    -1.9458     3.9437 H       
  54 H54           10.1805    -2.5338     4.4623 H       
  55 H55           10.7379     0.2872     6.6633 H       
  56 H56           11.4391    -1.2304     6.0497 H       
  57 H57           12.5977     0.6150     4.9710 H       
  58 H58           11.0518     1.3683     4.5015 H       
@<TRIPOS>BOND
   1    1    2 ar
   2    1    6 ar
   3    1   37 1
   4    2    3 ar
   5    2   38 1
   6    3    4 ar
   7    3   39 1
   8    4    5 ar
   9    4    7 1
  10    5    6 ar
  11    5   10 1
  12    6   22 1
  13    7    8 2
  14    7   40 1
  15    8    9 1
  16    8   11 1
  17    9   10 1
  18    9   21 2
  19   11   12 am
  20   11   13 2
  21   12   14 1
  22   12   41 1
  23   14   15 ar
  24   14   19 ar
  25   15   16 ar
  26   15   42 1
  27   16   17 ar
  28   16   43 1
  29   17   18 ar
  30   17   44 1
  31   18   19 ar
  32   18   20 1
  33   19   45 1
  34   20   23 ar
  35   20   27 ar
  36   22   46 1
  37   23   24 ar
  38   23   47 1
  39   24   25 ar
  40   24   48 1
  41   25   26 ar
  42   25   49 1
  43   26   27 ar
  44   26   50 1
  45   27   28 1
  46   28   29 am
  47   28   30 2
  48   28   31 2
  49   29   32 1
  50   29   36 1
  51   32   33 1
  52   32   51 1
  53   32   52 1
  54   33   34 1
  55   33   53 1
  56   33   54 1
  57   34   35 1
  58   35   36 1
  59   35   55 1
  60   35   56 1
  61   36   57 1
  62   36   58 1

#	End of record

