#	Name: ASD00069058
#	Creating user name:	WinNT
#	Creation time:	15. 06. 2019 18:29

#	Modifying user name:	WinNT
#	Modification time:	15. 06. 2019 18:29

#	Program:	/corina/corina34_cracker 3.40 0067  02.08.2006

@<TRIPOS>MOLECULE
ASD00069058
  32   33    0    0    0
SMALL
NO_CHARGES


@<TRIPOS>ATOM
   1 C1            -0.0187     1.5267     0.0104 C.3     
   2 C2             0.0021    -0.0041     0.0020 C.3     
   3 N3             0.7564    -0.4723    -1.1697 N.3     
   4 C4             2.1303     0.0503    -1.1477 C.3     
   5 C5             2.0882     1.5806    -1.1277 C.3     
   6 O6             1.3249     2.0168     0.0002 O.3     
   7 C7             0.7524    -1.9393    -1.2466 C.3     
   8 C8             1.3156    -2.3743    -2.5750 C.ar    
   9 C9             2.6729    -2.6012    -2.7072 C.ar    
  10 C10            0.4725    -2.5507    -3.6566 C.ar    
  11 C11            0.9886    -2.9509    -4.8798 C.ar    
  12 C12            2.3587    -3.1743    -5.0146 C.ar    
  13 C13            3.1961    -3.0000    -3.9233 C.ar    
  14 N14            0.1366    -3.1307    -5.9764 N.pl3   
  15 N15            2.8862    -3.5786    -6.2470 N.pl3   
  16 H16           -0.5448     1.8885    -0.8730 H       
  17 H17           -0.5278     1.8789     0.9076 H       
  18 H18            0.4808    -0.3666     0.9117 H       
  19 H19           -1.0192    -0.3817    -0.0479 H       
  20 H20            2.6431    -0.3114    -0.2564 H       
  21 H21            2.6626    -0.2876    -2.0368 H       
  22 H22            3.1030     1.9717    -1.0537 H       
  23 H23            1.6234     1.9439    -2.0443 H       
  24 H24            1.3639    -2.3470    -0.4417 H       
  25 H25           -0.2695    -2.3055    -1.1478 H       
  26 H26            3.3266    -2.4662    -1.8581 H       
  27 H27           -0.5880    -2.3772    -3.5487 H       
  28 H28            4.2576    -3.1721    -4.0242 H       
  29 H29           -0.8161    -2.9752    -5.8810 H       
  30 H30            0.4991    -3.4107    -6.8314 H       
  31 H31            2.2986    -3.7036    -7.0086 H       
  32 H32            3.8393    -3.7335    -6.3392 H       
@<TRIPOS>BOND
   1    1    2 1
   2    1    6 1
   3    1   16 1
   4    1   17 1
   5    2    3 1
   6    2   18 1
   7    2   19 1
   8    3    4 1
   9    3    7 1
  10    4    5 1
  11    4   20 1
  12    4   21 1
  13    5    6 1
  14    5   22 1
  15    5   23 1
  16    7    8 1
  17    7   24 1
  18    7   25 1
  19    8    9 ar
  20    8   10 ar
  21    9   13 ar
  22    9   26 1
  23   10   11 ar
  24   10   27 1
  25   11   12 ar
  26   11   14 1
  27   12   13 ar
  28   12   15 1
  29   13   28 1
  30   14   29 1
  31   14   30 1
  32   15   31 1
  33   15   32 1

#	End of record

