#	Name: ASD03091231
#	Creating user name:	WinNT
#	Creation time:	15. 06. 2019 20:30

#	Modifying user name:	WinNT
#	Modification time:	15. 06. 2019 20:30

#	Program:	/corina/corina34_cracker 3.40 0067  02.08.2006

@<TRIPOS>MOLECULE
ASD03091231
  36   38    0    0    0
SMALL
NO_CHARGES


@<TRIPOS>ATOM
   1 C1            -0.0167     1.3781     0.0096 C.ar    
   2 C2             0.0021    -0.0041     0.0020 C.ar    
   3 C3             1.2084    -0.6789    -0.0132 C.ar    
   4 C4             2.3960     0.0285    -0.0212 C.ar    
   5 C5             2.3773     1.4107    -0.0145 C.ar    
   6 C6             1.1710     2.0855     0.0021 C.ar    
   7 C7             3.6720     2.1819    -0.0223 C.3     
   8 C8             3.9214     3.1320    -1.1954 C.3     
   9 C9             3.5941     3.6953     0.1890 C.3     
  10 C10            2.8535     3.2249    -2.2546 C.2     
  11 N11            3.0209     4.0461    -3.3102 N.am    
  12 O12            1.8433     2.5608    -2.1573 O.2     
  13 C13            1.9828     4.1364    -4.3399 C.3     
  14 C14            2.4120     5.1164    -5.4013 C.ar    
  15 C15            2.8521     4.6576    -6.6286 C.ar    
  16 C16            3.2453     5.5562    -7.6024 C.ar    
  17 C17            3.1994     6.9149    -7.3500 C.ar    
  18 C18            2.7603     7.3759    -6.1237 C.ar    
  19 C19            2.3602     6.4767    -5.1494 C.ar    
  20 F20            1.9249     6.9265    -3.9521 F       
  21 H21           -0.9592     1.9054     0.0170 H       
  22 H22           -0.9258    -0.5567     0.0083 H       
  23 H23            1.2231    -1.7588    -0.0184 H       
  24 H24            3.3386    -0.4987    -0.0324 H       
  25 H25            1.1563     3.1654     0.0077 H       
  26 H26            4.5332     1.6590     0.3937 H       
  27 H27            4.9466     3.2343    -1.5509 H       
  28 H28            2.6065     4.1331     0.3336 H       
  29 H29            4.4041     4.1682     0.7442 H       
  30 H30            3.8288     4.5772    -3.3880 H       
  31 H31            1.8318     3.1556    -4.7907 H       
  32 H32            1.0509     4.4757    -3.8876 H       
  33 H33            2.8890     3.5966    -6.8266 H       
  34 H34            3.5890     5.1968    -8.5611 H       
  35 H35            3.5073     7.6161    -8.1115 H       
  36 H36            2.7248     8.4371    -5.9266 H       
@<TRIPOS>BOND
   1    1    2 ar
   2    1    6 ar
   3    1   21 1
   4    2    3 ar
   5    2   22 1
   6    3    4 ar
   7    3   23 1
   8    4    5 ar
   9    4   24 1
  10    5    6 ar
  11    5    7 1
  12    6   25 1
  13    7    8 1
  14    7    9 1
  15    7   26 1
  16    8    9 1
  17    8   10 1
  18    8   27 1
  19    9   28 1
  20    9   29 1
  21   10   11 am
  22   10   12 2
  23   11   13 1
  24   11   30 1
  25   13   14 1
  26   13   31 1
  27   13   32 1
  28   14   15 ar
  29   14   19 ar
  30   15   16 ar
  31   15   33 1
  32   16   17 ar
  33   16   34 1
  34   17   18 ar
  35   17   35 1
  36   18   19 ar
  37   18   36 1
  38   19   20 1

#	End of record

