#	Name: ASD01816719
#	Creating user name:	WinNT
#	Creation time:	15. 06. 2019 19:35

#	Modifying user name:	WinNT
#	Modification time:	15. 06. 2019 19:35

#	Program:	/corina/corina34_cracker 3.40 0067  02.08.2006

@<TRIPOS>MOLECULE
ASD01816719
  59   63    0    0    0
SMALL
NO_CHARGES


@<TRIPOS>ATOM
   1 C1            -0.0168     1.3959     0.0020 C.2     
   2 C2             0.0025    -0.0054    -0.0115 C.2     
   3 C3             1.1990    -0.6604    -0.0284 C.2     
   4 C4             2.3922     0.0813    -0.0320 C.2     
   5 N5             2.3439     1.4490    -0.0181 N.am    
   6 C6             1.1419     2.0926    -0.0016 C.2     
   7 C7             3.6231    -0.5888    -0.0493 C.2     
   8 C8             4.7881     0.1230    -0.0524 C.2     
   9 C9             4.7341     1.5283    -0.0387 C.2     
  10 C10            3.4812     2.1731    -0.0210 C.2     
  11 C11            3.6607    -2.0953    -0.0639 C.3     
  12 O12            3.4255     3.3913    -0.0094 O.2     
  13 C13            5.9710     2.3158    -0.0412 C.2     
  14 N14            7.1646     1.6961     0.0469 N.am    
  15 O15            5.9198     3.5293    -0.1228 O.2     
  16 N16            3.7813    -2.5687    -1.4492 N.3     
  17 C17            4.0582    -4.0102    -1.4905 C.3     
  18 C18            4.3210    -4.4393    -2.9358 C.3     
  19 C19            3.0943    -4.1116    -3.7915 C.3     
  20 C20            2.7985    -2.6125    -3.6926 C.3     
  21 C21            2.5798    -2.2364    -2.2254 C.3     
  22 C22            3.3697    -4.4769    -5.2274 C.ar    
  23 N23            4.6085    -4.7091    -5.6147 N.ar    
  24 C24            1.9349    -4.8751    -3.3020 C.1     
  25 N25            1.0401    -5.4643    -2.9243 N.1     
  26 C26            4.8967    -5.0317    -6.8605 C.ar    
  27 C27            3.9001    -5.1380    -7.8118 C.ar    
  28 C28            2.5848    -4.9011    -7.4419 C.ar    
  29 C29            2.3200    -4.5703    -6.1219 C.ar    
  30 C30            8.3514     2.4388    -0.0649 C.2     
  31 N31            9.6038     1.9657     0.0011 N.2     
  32 N32           10.4290     2.9411    -0.1438 N.2     
  33 N33            9.7915     4.0476    -0.3040 N.pl3   
  34 C34            8.4572     3.7785    -0.2672 C.2     
  35 C35           10.3967     5.3675    -0.4983 C.3     
  36 H36           -0.9605     1.9210     0.0110 H       
  37 H37           -0.9227    -0.5625    -0.0082 H       
  38 H38            1.2287    -1.7400    -0.0387 H       
  39 H39            1.1151     3.1723     0.0092 H       
  40 H40            5.7399    -0.3871    -0.0650 H       
  41 H41            4.5165    -2.4430     0.5147 H       
  42 H42            2.7425    -2.4858     0.3750 H       
  43 H43            7.2040     0.7372     0.1875 H       
  44 H44            4.9352    -4.2291    -0.8815 H       
  45 H45            3.1995    -4.5563    -1.1000 H       
  46 H46            5.1881    -3.9037    -3.3225 H       
  47 H47            4.5112    -5.5121    -2.9681 H       
  48 H48            3.6416    -2.0481    -4.0912 H       
  49 H49            1.9008    -2.3801    -4.2656 H       
  50 H50            1.7280    -2.7908    -1.8314 H       
  51 H51            2.3831    -1.1669    -2.1501 H       
  52 H52            5.9236    -5.2146    -7.1406 H       
  53 H53            4.1426    -5.4019    -8.8306 H       
  54 H54            1.7853    -4.9765    -8.1640 H       
  55 H55            1.3074    -4.3795    -5.7986 H       
  56 H56            7.6481     4.4863    -0.3708 H       
  57 H57           10.5441     5.5464    -1.5634 H       
  58 H58            9.7377     6.1332    -0.0890 H       
  59 H59           11.3586     5.4049     0.0129 H       
@<TRIPOS>BOND
   1    1    2 1
   2    1    6 2
   3    1   36 1
   4    2    3 2
   5    2   37 1
   6    3    4 1
   7    3   38 1
   8    4    5 1
   9    4    7 2
  10    5    6 1
  11    5   10 am
  12    6   39 1
  13    7    8 1
  14    7   11 1
  15    8    9 2
  16    8   40 1
  17    9   10 1
  18    9   13 1
  19   10   12 2
  20   11   16 1
  21   11   41 1
  22   11   42 1
  23   13   15 2
  24   13   14 am
  25   14   30 1
  26   14   43 1
  27   16   17 1
  28   16   21 1
  29   17   18 1
  30   17   44 1
  31   17   45 1
  32   18   19 1
  33   18   46 1
  34   18   47 1
  35   19   20 1
  36   19   22 1
  37   19   24 1
  38   20   21 1
  39   20   48 1
  40   20   49 1
  41   21   50 1
  42   21   51 1
  43   22   23 ar
  44   22   29 ar
  45   23   26 ar
  46   24   25 3
  47   26   27 ar
  48   26   52 1
  49   27   28 ar
  50   27   53 1
  51   28   29 ar
  52   28   54 1
  53   29   55 1
  54   30   31 1
  55   30   34 2
  56   31   32 2
  57   32   33 1
  58   33   34 1
  59   33   35 1
  60   34   56 1
  61   35   57 1
  62   35   58 1
  63   35   59 1

#	End of record

