#	Name: ASD01890404
#	Creating user name:	WinNT
#	Creation time:	15. 06. 2019 19:50

#	Modifying user name:	WinNT
#	Modification time:	15. 06. 2019 19:50

#	Program:	/corina/corina34_cracker 3.40 0067  02.08.2006

@<TRIPOS>MOLECULE
ASD01890404
  34   36    0    0    0
SMALL
NO_CHARGES


@<TRIPOS>ATOM
   1 C1            -0.0177     1.4575     0.0101 C.2     
   2 C2             0.0021    -0.0041     0.0020 C.2     
   3 C3             1.1816    -0.6638    -0.0128 C.2     
   4 O4             1.0282     2.0805     0.0034 O.2     
   5 C5             2.4163    -2.8073    -0.0361 C.ar    
   6 C6             1.2015    -2.1337    -0.0209 C.ar    
   7 C7            -0.0117    -2.8502    -0.0127 C.ar    
   8 C8            -0.0177    -4.2066    -0.0189 C.ar    
   9 C9             1.1972    -4.9172    -0.0343 C.ar    
  10 C10            1.2137    -6.3215    -0.0405 C.ar    
  11 C11            2.4040    -6.9829    -0.0550 C.ar    
  12 C12            3.6118    -6.2877    -0.0634 C.ar    
  13 C13            3.6363    -4.9270    -0.0573 C.ar    
  14 C14            2.4264    -4.2090    -0.0432 C.ar    
  15 C15           -1.3083     2.1794     0.0201 C.ar    
  16 C16           -1.3307     3.5755     0.0278 C.ar    
  17 C17           -2.5375     4.2428     0.0367 C.ar    
  18 C18           -3.7253     3.5314     0.0384 C.ar    
  19 C19           -3.7100     2.1469     0.0308 C.ar    
  20 C20           -2.5098     1.4678     0.0161 C.ar    
  21 I21           -5.5537     4.5541     0.0533 I       
  22 H22           -0.9258    -0.5567     0.0079 H       
  23 H23            2.1094    -0.1112    -0.0187 H       
  24 H24            3.3448    -2.2558    -0.0468 H       
  25 H25           -0.9484    -2.3128    -0.0009 H       
  26 H26           -0.9556    -4.7419    -0.0118 H       
  27 H27            0.2862    -6.8747    -0.0334 H       
  28 H28            2.4121    -8.0629    -0.0597 H       
  29 H29            4.5418    -6.8367    -0.0746 H       
  30 H30            4.5796    -4.4011    -0.0632 H       
  31 H31           -0.4048     4.1316     0.0272 H       
  32 H32           -2.5562     5.3227     0.0426 H       
  33 H33           -4.6399     1.5977     0.0322 H       
  34 H34           -2.4991     0.3879     0.0057 H       
@<TRIPOS>BOND
   1    1    2 1
   2    1    4 2
   3    1   15 1
   4    2    3 2
   5    2   22 1
   6    3    6 1
   7    3   23 1
   8    5    6 ar
   9    5   14 ar
  10    5   24 1
  11    6    7 ar
  12    7    8 ar
  13    7   25 1
  14    8    9 ar
  15    8   26 1
  16    9   10 ar
  17    9   14 ar
  18   10   11 ar
  19   10   27 1
  20   11   12 ar
  21   11   28 1
  22   12   13 ar
  23   12   29 1
  24   13   14 ar
  25   13   30 1
  26   15   16 ar
  27   15   20 ar
  28   16   17 ar
  29   16   31 1
  30   17   18 ar
  31   17   32 1
  32   18   19 ar
  33   18   21 1
  34   19   20 ar
  35   19   33 1
  36   20   34 1

#	End of record

