#	Name: ASD01811998
#	Creating user name:	WinNT
#	Creation time:	15. 06. 2019 19:27

#	Modifying user name:	WinNT
#	Modification time:	15. 06. 2019 19:27

#	Program:	/corina/corina34_cracker 3.40 0067  02.08.2006

@<TRIPOS>MOLECULE
ASD01811998
  48   50    0    0    0
SMALL
NO_CHARGES


@<TRIPOS>ATOM
   1 C1            -0.0929     1.2771     0.2758 C.ar    
   2 C2            -0.0255    -0.1061     0.2533 C.ar    
   3 C3             1.1931    -0.7351     0.1474 C.ar    
   4 C4             2.3775     0.0150     0.0612 C.ar    
   5 C5             2.3060     1.4083     0.0830 C.ar    
   6 C6             1.0593     2.0276     0.1914 C.ar    
   7 C7             3.6412    -0.7196    -0.0470 C.2     
   8 C8             4.8141     0.7606     1.4281 C.3     
   9 C9             4.5803     2.0027     0.6118 C.2     
  10 N10            3.4190     2.2281     0.0005 N.am    
  11 S11            5.7552     3.0788     0.4753 S.2     
  12 C12            3.6632    -1.9393    -0.9318 C.3     
  13 C13            3.4371    -1.5190    -2.3855 C.3     
  14 C14            3.4595    -2.7573    -3.2838 C.3     
  15 C15            4.8164    -3.4532    -3.1593 C.3     
  16 C16            5.0424    -3.8736    -1.7056 C.3     
  17 C17            5.0201    -2.6353    -0.8073 C.3     
  18 C18           -1.2886    -0.9229     0.3456 C.3     
  19 C19            3.7518     0.6605     2.5247 C.3     
  20 C20            3.9312    -0.6519     3.2903 C.3     
  21 N21            4.7243    -0.4059     0.5510 N.2     
  22 C22            3.9022     1.8384     3.4895 C.3     
  23 H23           -1.0513     1.7686     0.3552 H       
  24 H24            1.2396    -1.8140     0.1307 H       
  25 H25            0.9977     3.1057     0.2094 H       
  26 H26            5.8051     0.8020     1.8801 H       
  27 H27            3.3473     3.0274    -0.5444 H       
  28 H28            2.8736    -2.6252    -0.6249 H       
  29 H29            2.4705    -1.0232    -2.4742 H       
  30 H30            4.2268    -0.8331    -2.6924 H       
  31 H31            2.6699    -3.4431    -2.9769 H       
  32 H32            3.2985    -2.4578    -4.3194 H       
  33 H33            4.8323    -4.3354    -3.7993 H       
  34 H34            5.6060    -2.7674    -3.4662 H       
  35 H35            4.2528    -4.5594    -1.3987 H       
  36 H36            6.0091    -4.3694    -1.6169 H       
  37 H37            5.8097    -1.9494    -1.1142 H       
  38 H38            5.1811    -2.9347     0.2283 H       
  39 H39           -1.6761    -1.1072    -0.6564 H       
  40 H40           -1.0717    -1.8739     0.8318 H       
  41 H41           -2.0318    -0.3782     0.9280 H       
  42 H42            2.7601     0.6851     2.0731 H       
  43 H43            4.9230    -0.6765     3.7418 H       
  44 H44            3.1744    -0.7232     4.0715 H       
  45 H45            3.8241    -1.4911     2.6029 H       
  46 H46            3.8552     2.7735     2.9314 H       
  47 H47            3.0966     1.8123     4.2232 H       
  48 H48            4.8621     1.7686     4.0012 H       
@<TRIPOS>BOND
   1    1    2 ar
   2    1    6 ar
   3    1   23 1
   4    2    3 ar
   5    2   18 1
   6    3    4 ar
   7    3   24 1
   8    4    5 ar
   9    4    7 1
  10    5    6 ar
  11    5   10 1
  12    6   25 1
  13    7   12 1
  14    7   21 2
  15    8    9 1
  16    8   21 1
  17    8   19 1
  18    8   26 1
  19    9   10 am
  20    9   11 2
  21   10   27 1
  22   12   13 1
  23   12   17 1
  24   12   28 1
  25   13   14 1
  26   13   29 1
  27   13   30 1
  28   14   15 1
  29   14   31 1
  30   14   32 1
  31   15   16 1
  32   15   33 1
  33   15   34 1
  34   16   17 1
  35   16   35 1
  36   16   36 1
  37   17   37 1
  38   17   38 1
  39   18   39 1
  40   18   40 1
  41   18   41 1
  42   19   20 1
  43   19   22 1
  44   19   42 1
  45   20   43 1
  46   20   44 1
  47   20   45 1
  48   22   46 1
  49   22   47 1
  50   22   48 1

#	End of record

