#	Name: ASD03240183
#	Creating user name:	WinNT
#	Creation time:	15. 06. 2019 20:34

#	Modifying user name:	WinNT
#	Modification time:	15. 06. 2019 20:34

#	Program:	/corina/corina34_cracker 3.40 0067  02.08.2006

@<TRIPOS>MOLECULE
ASD03240183
  78   85    0    0    0
SMALL
NO_CHARGES


@<TRIPOS>ATOM
   1 C1            -0.0171     1.4111     0.0098 C.ar    
   2 C2             0.0021    -0.0041     0.0020 C.ar    
   3 C3             1.1859     2.1159     0.0021 C.ar    
   4 C4             2.3722     1.3857    -0.0131 C.ar    
   5 C5             2.3148    -0.0214    -0.0202 C.ar    
   6 N6             1.1559    -0.6602    -0.0125 N.ar    
   7 C7             3.5746    -0.8005    -0.0369 C.ar    
   8 C8             3.6804     2.0822    -0.0224 C.ar    
   9 C9             3.9249     3.0999    -0.9435 C.ar    
  10 C10            5.1448     3.7451    -0.9470 C.ar    
  11 C11            6.1240     3.3839    -0.0390 C.ar    
  12 C12            5.8873     2.3745     0.8769 C.ar    
  13 C13            4.6693     1.7261     0.8938 C.ar    
  14 C14            3.6572    -2.0128     0.6477 C.ar    
  15 C15            4.8334    -2.7340     0.6284 C.ar    
  16 C16            5.9294    -2.2568    -0.0680 C.ar    
  17 C17            5.8536    -1.0549    -0.7490 C.ar    
  18 C18            4.6811    -0.3275    -0.7419 C.ar    
  19 C19            7.2111    -3.0492    -0.0846 C.3     
  20 N20            7.1988    -3.9766    -1.2238 N.3     
  21 C21            8.5176    -4.5938    -1.4141 C.3     
  22 C22            8.5077    -5.4380    -2.6906 C.3     
  23 C23            7.4297    -6.5190    -2.5735 C.3     
  24 C24            6.0736    -5.8518    -2.3274 C.3     
  25 C25            6.1540    -4.9956    -1.0615 C.3     
  26 C26            7.3744    -7.3157    -3.8515 C.2     
  27 N27            7.1122    -6.8288    -5.0373 N.2     
  28 N28            7.1609    -7.9027    -5.9411 N.pl3   
  29 C29            7.4599    -9.0000    -5.2091 C.2     
  30 N30            7.5900    -8.6233    -3.9535 N.2     
  31 C31            7.6183   -10.3774    -5.7272 C.ar    
  32 N32            7.4637   -10.6149    -7.0241 N.ar    
  33 C33            7.5961   -11.8258    -7.5247 C.ar    
  34 C34            7.9028   -12.9015    -6.7108 C.ar    
  35 C35            8.0729   -12.6980    -5.3487 C.ar    
  36 C36            7.9341   -11.4143    -4.8500 C.ar    
  37 C37           -1.2798    -0.7162     0.0109 C.2     
  38 C38           -2.4295    -0.0293     0.0261 C.2     
  39 N39           -2.4679     1.3415     0.0338 N.pl3   
  40 C40           -1.3145     2.0933     0.0319 C.2     
  41 C41           -3.4933     2.2444     0.0489 C.2     
  42 N42           -2.9584     3.4432     0.0500 N.2     
  43 N43           -1.6751     3.3573     0.0408 N.2     
  44 N44           -4.8527     1.9480     0.0604 N.am    
  45 C45           -5.7596     2.9449     0.0749 C.2     
  46 N46           -7.0764     2.6578     0.0860 N.am    
  47 O47           -5.3899     4.1032     0.0778 O.2     
  48 H48            1.1978     3.1958     0.0074 H       
  49 H49            3.1613     3.3825    -1.6530 H       
  50 H50            5.3355     4.5334    -1.6602 H       
  51 H51            7.0771     3.8916    -0.0455 H       
  52 H52            6.6556     2.0966     1.5831 H       
  53 H53            4.4856     0.9382     1.6093 H       
  54 H54            2.8024    -2.3862     1.1920 H       
  55 H55            4.8987    -3.6728     1.1584 H       
  56 H56            6.7126    -0.6873    -1.2906 H       
  57 H57            4.6231     0.6106    -1.2738 H       
  58 H58            8.0576    -2.3689    -0.1790 H       
  59 H59            7.3009    -3.6144     0.8431 H       
  60 H60            9.2745    -3.8142    -1.5001 H       
  61 H61            8.7475    -5.2303    -0.5596 H       
  62 H62            8.2916    -4.7997    -3.5473 H       
  63 H63            9.4820    -5.9085    -2.8232 H       
  64 H64            7.6665    -7.1808    -1.7405 H       
  65 H65            5.8191    -5.2200    -3.1784 H       
  66 H66            5.3087    -6.6179    -2.2006 H       
  67 H67            6.3950    -5.6302    -0.2086 H       
  68 H68            5.1942    -4.5078    -0.8914 H       
  69 H69            7.0099    -7.8650    -6.8986 H       
  70 H70            7.4631   -11.9812    -8.5851 H       
  71 H71            8.0084   -13.8906    -7.1315 H       
  72 H72            8.3127   -13.5221    -4.6931 H       
  73 H73            8.0598   -11.2200    -3.7951 H       
  74 H74           -1.2968    -1.7960     0.0050 H       
  75 H75           -3.3612    -0.5754     0.0320 H       
  76 H76           -5.1477     1.0239     0.0581 H       
  77 H77           -7.3714     1.7338     0.0837 H       
  78 H78           -7.7292     3.3753     0.0964 H       
@<TRIPOS>BOND
   1    1    2 ar
   2    1    3 ar
   3    1   40 1
   4    2   37 1
   5    2    6 ar
   6    3    4 ar
   7    3   48 1
   8    4    5 ar
   9    4    8 1
  10    5    6 ar
  11    5    7 1
  12    7   14 ar
  13    7   18 ar
  14    8    9 ar
  15    8   13 ar
  16    9   10 ar
  17    9   49 1
  18   10   11 ar
  19   10   50 1
  20   11   12 ar
  21   11   51 1
  22   12   13 ar
  23   12   52 1
  24   13   53 1
  25   14   15 ar
  26   14   54 1
  27   15   16 ar
  28   15   55 1
  29   16   17 ar
  30   16   19 1
  31   17   18 ar
  32   17   56 1
  33   18   57 1
  34   19   20 1
  35   19   58 1
  36   19   59 1
  37   20   21 1
  38   20   25 1
  39   21   22 1
  40   21   60 1
  41   21   61 1
  42   22   23 1
  43   22   62 1
  44   22   63 1
  45   23   24 1
  46   23   26 1
  47   23   64 1
  48   24   25 1
  49   24   65 1
  50   24   66 1
  51   25   67 1
  52   25   68 1
  53   26   27 2
  54   26   30 1
  55   27   28 1
  56   28   29 1
  57   28   69 1
  58   29   30 2
  59   29   31 1
  60   31   32 ar
  61   31   36 ar
  62   32   33 ar
  63   33   34 ar
  64   33   70 1
  65   34   35 ar
  66   34   71 1
  67   35   36 ar
  68   35   72 1
  69   36   73 1
  70   37   38 2
  71   37   74 1
  72   38   39 1
  73   38   75 1
  74   39   40 1
  75   39   41 1
  76   40   43 2
  77   41   42 2
  78   41   44 1
  79   42   43 1
  80   44   45 am
  81   44   76 1
  82   45   46 am
  83   45   47 2
  84   46   77 1
  85   46   78 1

#	End of record

