#	Name: ASD01882230
#	Creating user name:	WinNT
#	Creation time:	15. 06. 2019 19:44

#	Modifying user name:	WinNT
#	Modification time:	15. 06. 2019 19:44

#	Program:	/corina/corina34_cracker 3.40 0067  02.08.2006

@<TRIPOS>MOLECULE
ASD01882230
  46   50    0    0    0
SMALL
NO_CHARGES


@<TRIPOS>ATOM
   1 C1            -0.0159     1.3220     0.0093 C.2     
   2 N2             0.0021    -0.0041     0.0020 N.2     
   3 C3             1.1523    -0.6857    -0.0126 C.2     
   4 C4             2.3835     0.0173    -0.0206 C.2     
   5 C5             2.3523     1.3664    -0.0131 C.2     
   6 N6             1.1484     2.0132     0.0019 N.pl3   
   7 O7            -1.0993     2.1290     0.0184 O.3     
   8 C8             0.8540     3.4562     0.0125 C.3     
   9 C9            -0.6831     3.5211     0.0242 C.3     
  10 O10            1.1423    -1.9071    -0.0187 O.2     
  11 C11           -1.1944     4.2379    -1.2270 C.3     
  12 O12           -2.6209     4.3119    -1.1842 O.3     
  13 S13           -4.9832     5.8983    -3.8007 S.3     
  14 C14           -3.2683     5.9930    -4.1896 C.2     
  15 N15           -2.5746     5.4289    -3.2406 N.2     
  16 C16           -3.2389     4.9237    -2.2294 C.2     
  17 C17           -4.5967     5.0557    -2.3017 C.2     
  18 C18           -5.5696     4.5776    -1.2996 C.ar    
  19 C19           -6.9374     4.7793    -1.4976 C.ar    
  20 C20           -7.8408     4.3295    -0.5573 C.ar    
  21 C21           -7.3947     3.6800     0.5803 C.ar    
  22 C22           -6.0410     3.4771     0.7831 C.ar    
  23 C23           -5.1268     3.9161    -0.1518 C.ar    
  24 C24           -2.7027     6.6154    -5.4044 C.ar    
  25 C25           -1.3213     6.6309    -5.6061 C.ar    
  26 C26           -0.7999     7.2132    -6.7427 C.ar    
  27 C27           -1.6426     7.7810    -7.6818 C.ar    
  28 C28           -3.0126     7.7690    -7.4882 C.ar    
  29 C29           -3.5476     7.1854    -6.3586 C.ar    
  30 H30            3.3237    -0.5140    -0.0321 H       
  31 H31            3.2727     1.9314    -0.0185 H       
  32 H32            1.2651     3.9237     0.9072 H       
  33 H33            1.2480     3.9334    -0.8848 H       
  34 H34           -1.0396     4.0220     0.9243 H       
  35 H35           -0.7793     5.2451    -1.2639 H       
  36 H36           -0.8857     3.6850    -2.1142 H       
  37 H37           -7.2869     5.2867    -2.3846 H       
  38 H38           -8.8987     4.4848    -0.7091 H       
  39 H39           -8.1064     3.3302     1.3134 H       
  40 H40           -5.6997     2.9701     1.6736 H       
  41 H41           -4.0708     3.7532     0.0057 H       
  42 H42           -0.6623     6.1884    -4.8737 H       
  43 H43            0.2686     7.2263    -6.8998 H       
  44 H44           -1.2292     8.2359    -8.5698 H       
  45 H45           -3.6648     8.2140    -8.2251 H       
  46 H46           -4.6174     7.1731    -6.2106 H       
@<TRIPOS>BOND
   1    1    2 2
   2    1    6 1
   3    1    7 1
   4    2    3 1
   5    3    4 1
   6    3   10 2
   7    4    5 2
   8    4   30 1
   9    5    6 1
  10    5   31 1
  11    6    8 1
  12    7    9 1
  13    8    9 1
  14    8   32 1
  15    8   33 1
  16    9   11 1
  17    9   34 1
  18   11   12 1
  19   11   35 1
  20   11   36 1
  21   12   16 1
  22   13   14 1
  23   13   17 1
  24   14   15 2
  25   14   24 1
  26   15   16 1
  27   16   17 2
  28   17   18 1
  29   18   19 ar
  30   18   23 ar
  31   19   20 ar
  32   19   37 1
  33   20   21 ar
  34   20   38 1
  35   21   22 ar
  36   21   39 1
  37   22   23 ar
  38   22   40 1
  39   23   41 1
  40   24   25 ar
  41   24   29 ar
  42   25   26 ar
  43   25   42 1
  44   26   27 ar
  45   26   43 1
  46   27   28 ar
  47   27   44 1
  48   28   29 ar
  49   28   45 1
  50   29   46 1

#	End of record

