#	Name: ASD01915165
#	Creating user name:	WinNT
#	Creation time:	15. 06. 2019 20:04

#	Modifying user name:	WinNT
#	Modification time:	15. 06. 2019 20:04

#	Program:	/corina/corina34_cracker 3.40 0067  02.08.2006

@<TRIPOS>MOLECULE
ASD01915165
  41   44    0    0    0
SMALL
NO_CHARGES


@<TRIPOS>ATOM
   1 C1            -0.0894     1.1280    -0.0832 C.ar    
   2 C2            -0.1028    -0.2546    -0.0566 C.ar    
   3 C3            -1.3042    -0.9391    -0.0129 C.ar    
   4 C4            -2.4966    -0.2446     0.0048 C.ar    
   5 C5            -2.4889     1.1486    -0.0214 C.ar    
   6 C6            -1.2761     1.8328    -0.0605 C.ar    
   7 C7            -3.7682     1.9009    -0.0025 C.2     
   8 N8            -5.0111     1.3700     0.0393 N.2     
   9 C9            -5.8303     2.3919     0.0421 C.2     
  10 O10           -5.0802     3.4976     0.0026 O.3     
  11 N11           -3.9043     3.2013    -0.0176 N.2     
  12 C12           -7.3356     2.3323     0.0815 C.3     
  13 C13           -7.9518     3.0334     1.3058 C.3     
  14 N14           -8.9591     3.5661     0.3680 N.am    
  15 C15           -8.0213     3.4221    -0.7624 C.3     
  16 C16          -10.2265     4.0071     0.4935 C.2     
  17 C17          -10.9207     4.6000    -0.6679 C.ar    
  18 O18          -10.7984     3.9170     1.5624 O.2     
  19 C19          -12.2755     4.9277    -0.5822 C.ar    
  20 C20          -12.9182     5.4811    -1.6687 C.ar    
  21 C21          -12.2221     5.7125    -2.8453 C.ar    
  22 C22          -10.8769     5.3886    -2.9360 C.ar    
  23 C23          -10.2231     4.8401    -1.8536 C.ar    
  24 C24            1.2233     1.8667    -0.1308 C.3     
  25 F25          -12.8568     6.2552    -3.9073 F       
  26 H26            0.8281    -0.8021    -0.0703 H       
  27 H27           -1.3090    -2.0189     0.0070 H       
  28 H28           -3.4340    -0.7799     0.0386 H       
  29 H29           -1.2645     2.9126    -0.0806 H       
  30 H30           -7.7259     1.3296    -0.0926 H       
  31 H31           -8.3609     2.3458     2.0460 H       
  32 H32           -7.3104     3.7986     1.7429 H       
  33 H33           -7.4003     4.3015    -0.9328 H       
  34 H34           -8.4859     3.0449    -1.6734 H       
  35 H35          -12.8188     4.7475     0.3337 H       
  36 H36          -13.9660     5.7345    -1.6036 H       
  37 H37          -10.3395     5.5707    -3.8549 H       
  38 H38           -9.1752     4.5885    -1.9252 H       
  39 H39            1.5135     2.0253    -1.1694 H       
  40 H40            1.1163     2.8301     0.3677 H       
  41 H41            1.9894     1.2790     0.3749 H       
@<TRIPOS>BOND
   1    1    2 ar
   2    1   24 1
   3    1    6 ar
   4    2    3 ar
   5    2   26 1
   6    3    4 ar
   7    3   27 1
   8    4    5 ar
   9    4   28 1
  10    5    6 ar
  11    5    7 1
  12    6   29 1
  13    7    8 1
  14    7   11 2
  15    8    9 2
  16    9   10 1
  17    9   12 1
  18   10   11 1
  19   12   13 1
  20   12   15 1
  21   12   30 1
  22   13   14 1
  23   13   31 1
  24   13   32 1
  25   14   15 1
  26   14   16 am
  27   15   33 1
  28   15   34 1
  29   16   17 1
  30   16   18 2
  31   17   19 ar
  32   17   23 ar
  33   19   20 ar
  34   19   35 1
  35   20   21 ar
  36   20   36 1
  37   21   22 ar
  38   21   25 1
  39   22   23 ar
  40   22   37 1
  41   23   38 1
  42   24   39 1
  43   24   40 1
  44   24   41 1

#	End of record

