#	Name: ASD00069412
#	Creating user name:	WinNT
#	Creation time:	15. 06. 2019 18:29

#	Modifying user name:	WinNT
#	Modification time:	15. 06. 2019 18:29

#	Program:	/corina/corina34_cracker 3.40 0067  02.08.2006

@<TRIPOS>MOLECULE
ASD00069412
  58   60    0    0    0
SMALL
NO_CHARGES


@<TRIPOS>ATOM
   1 C1             0.1115     1.6690     0.4339 C.2     
   2 C2             0.0686     0.3133     0.4391 C.2     
   3 C3             2.1482     0.8709     0.2859 C.2     
   4 N4             1.3148    -0.1462     0.3485 N.2     
   5 Br5           -1.4949    -0.7440     0.5558 Br      
   6 C6             3.6148     0.7791     0.1778 C.2     
   7 O7             4.2854     1.7926     0.1267 O.2     
   8 N8             4.2132    -0.4278     0.1355 N.am    
   9 C9             5.5951    -0.5172    -0.0734 C.ar    
  10 C10            6.3226    -1.5585     0.5005 C.ar    
  11 C11            6.2428     0.4273    -0.8570 C.ar    
  12 C12            7.6064     0.3380    -1.0624 C.ar    
  13 C13            8.3308    -0.6913    -0.4890 C.ar    
  14 C14            7.6929    -1.6412     0.2893 C.ar    
  15 N15            5.6739    -2.5181     1.2881 N.3     
  16 C16            6.1303    -2.4500     2.6840 C.3     
  17 C17            5.3549    -3.4723     3.5192 C.3     
  18 O18            5.5319    -4.7743     2.9546 O.3     
  19 C19            5.0973    -4.8766     1.5960 C.3     
  20 C20            5.8700    -3.8686     0.7413 C.3     
  21 F21            8.4035    -2.6451     0.8482 F       
  22 N22            1.4203     2.0264     0.3374 N.pl3   
  23 Si23           0.5818     8.3803     0.3882 Si      
  24 C24            0.0475     6.5960     0.4306 C.3     
  25 C25            1.2791     5.6926     0.3415 C.3     
  26 O26            0.8693     4.3240     0.3740 O.3     
  27 C27            1.4871     8.7198    -1.2042 C.3     
  28 C28           -0.9179     9.4803     0.4967 C.3     
  29 C29            1.7103     8.7250     1.8298 C.3     
  30 C30            1.9496     3.3919     0.2961 C.3     
  31 H31           -0.7342     2.3383     0.4909 H       
  32 H32            3.6867    -1.2344     0.2498 H       
  33 H33            5.6808     1.2324    -1.3068 H       
  34 H34            8.1081     1.0742    -1.6730 H       
  35 H35            9.3963    -0.7566    -0.6530 H       
  36 H36            7.1957    -2.6754     2.7300 H       
  37 H37            5.9521    -1.4489     3.0767 H       
  38 H38            5.7296    -3.4653     4.5428 H       
  39 H39            4.2955    -3.2156     3.5171 H       
  40 H40            5.2857    -5.8854     1.2286 H       
  41 H41            4.0304    -4.6608     1.5379 H       
  42 H42            5.5020    -3.9031    -0.2841 H       
  43 H43            6.9313    -4.1167     0.7562 H       
  44 H44           -0.4822     6.3974     1.3623 H       
  45 H45           -0.6128     6.3944    -0.4128 H       
  46 H46            1.8088     5.8913    -0.5902 H       
  47 H47            1.9394     5.8943     1.1850 H       
  48 H48            0.8268     8.5181    -2.0477 H       
  49 H49            1.7997     9.7637    -1.2290 H       
  50 H50            2.3645     8.0762    -1.2677 H       
  51 H51           -1.4476     9.2817     1.4284 H       
  52 H52           -0.6053    10.5242     0.4719 H       
  53 H53           -1.5782     9.2786    -0.3468 H       
  54 H54            2.5878     8.0814     1.7664 H       
  55 H55            2.0229     9.7689     1.8050 H       
  56 H56            1.1807     8.5264     2.7615 H       
  57 H57            2.6238     3.5458     1.1387 H       
  58 H58            2.4932     3.5428    -0.6365 H       
@<TRIPOS>BOND
   1    1    2 2
   2    1   22 1
   3    1   31 1
   4    2    5 1
   5    2    4 1
   6    3    4 2
   7    3    6 1
   8    3   22 1
   9    6    7 2
  10    6    8 am
  11    8    9 1
  12    8   32 1
  13    9   10 ar
  14    9   11 ar
  15   10   15 1
  16   10   14 ar
  17   11   12 ar
  18   11   33 1
  19   12   13 ar
  20   12   34 1
  21   13   14 ar
  22   13   35 1
  23   14   21 1
  24   15   16 1
  25   15   20 1
  26   16   17 1
  27   16   36 1
  28   16   37 1
  29   17   18 1
  30   17   38 1
  31   17   39 1
  32   18   19 1
  33   19   20 1
  34   19   40 1
  35   19   41 1
  36   20   42 1
  37   20   43 1
  38   22   30 1
  39   23   24 1
  40   23   27 1
  41   23   28 1
  42   23   29 1
  43   24   25 1
  44   24   44 1
  45   24   45 1
  46   25   26 1
  47   25   46 1
  48   25   47 1
  49   26   30 1
  50   27   48 1
  51   27   49 1
  52   27   50 1
  53   28   51 1
  54   28   52 1
  55   28   53 1
  56   29   54 1
  57   29   55 1
  58   29   56 1
  59   30   57 1
  60   30   58 1

#	End of record

