#	Name: ASD02560400
#	Creating user name:	WinNT
#	Creation time:	15. 06. 2019 20:25

#	Modifying user name:	WinNT
#	Modification time:	15. 06. 2019 20:25

#	Program:	/corina/corina34_cracker 3.40 0067  02.08.2006

@<TRIPOS>MOLECULE
ASD02560400
  40   43    0    0    0
SMALL
NO_CHARGES


@<TRIPOS>ATOM
   1 C1             0.1362     1.3888     1.1073 C.2     
   2 C2             0.1573    -0.0172     1.0952 C.2     
   3 C3             1.2858    -0.6787     0.7690 C.2     
   4 N4             2.4262     0.0062     0.4448 N.pl3   
   5 C5             2.4356     1.3825     0.4476 C.2     
   6 C6             1.2599     2.0844     0.7879 C.2     
   7 C7             3.6779    -0.4094     0.0843 C.2     
   8 C8             4.4312     0.7293    -0.1271 C.2     
   9 N9             3.6437     1.7974     0.1029 N.2     
  10 C10            5.8499     0.7683    -0.5337 C.2     
  11 N11            4.1111    -1.7295    -0.0447 N.3     
  12 C12            2.9873    -2.6671     0.0811 C.3     
  13 C13            3.3271    -3.9707    -0.6443 C.3     
  14 C14            6.4208     1.6939    -1.3510 C.2     
  15 O15            6.8051    -0.1032    -0.1550 O.3     
  16 C16            2.7298    -2.9590     1.5608 C.3     
  17 C17            1.5593    -3.9355     1.6918 C.3     
  18 C18            1.8991    -5.2391     0.9664 C.3     
  19 C19            2.1566    -4.9472    -0.5133 C.3     
  20 C20            7.7835     1.3485    -1.4664 C.2     
  21 C21            7.9754     0.2434    -0.7188 C.2     
  22 Cl22           9.4831    -0.5932    -0.5176 Cl      
  23 H23           -0.7712     1.9146     1.3652 H       
  24 H24           -0.7351    -0.5701     1.3488 H       
  25 H25            1.2905    -1.7587     0.7638 H       
  26 H26            1.2524     3.1643     0.7940 H       
  27 H27            4.6001    -1.8660    -0.9167 H       
  28 H28            2.0948    -2.2262    -0.3629 H       
  29 H29            3.5105    -3.7627    -1.6984 H       
  30 H30            4.2195    -4.4116    -0.2003 H       
  31 H31            5.9262     2.5311    -1.8209 H       
  32 H32            3.6223    -3.3999     2.0048 H       
  33 H33            2.4878    -2.0303     2.0775 H       
  34 H34            1.3759    -4.1435     2.7459 H       
  35 H35            0.6668    -3.4946     1.2477 H       
  36 H36            2.7915    -5.6800     1.4104 H       
  37 H37            1.0652    -5.9348     1.0597 H       
  38 H38            1.2641    -4.5063    -0.9573 H       
  39 H39            2.3986    -5.8759    -1.0301 H       
  40 H40            8.5321     1.8722    -2.0424 H       
@<TRIPOS>BOND
   1    1    2 1
   2    1    6 2
   3    1   23 1
   4    2    3 2
   5    2   24 1
   6    3    4 1
   7    3   25 1
   8    4    5 1
   9    4    7 1
  10    5    6 1
  11    5    9 2
  12    6   26 1
  13    7    8 2
  14    7   11 1
  15    8    9 1
  16    8   10 1
  17   10   14 2
  18   10   15 1
  19   11   12 1
  20   11   27 1
  21   12   13 1
  22   12   16 1
  23   12   28 1
  24   13   19 1
  25   13   29 1
  26   13   30 1
  27   14   20 1
  28   14   31 1
  29   15   21 1
  30   16   17 1
  31   16   32 1
  32   16   33 1
  33   17   18 1
  34   17   34 1
  35   17   35 1
  36   18   19 1
  37   18   36 1
  38   18   37 1
  39   19   38 1
  40   19   39 1
  41   20   21 2
  42   20   40 1
  43   21   22 1

#	End of record

