#	Name: ASD00310345
#	Creating user name:	WinNT
#	Creation time:	15. 06. 2019 18:34

#	Modifying user name:	WinNT
#	Modification time:	15. 06. 2019 18:34

#	Program:	/corina/corina34_cracker 3.40 0067  02.08.2006

@<TRIPOS>MOLECULE
ASD00310345
  18   19    0    0    0
SMALL
NO_CHARGES


@<TRIPOS>ATOM
   1 P1            -0.0192     1.5624     0.0106 P.3     
   2 O2             0.0021    -0.0041     0.0020 O.co2   
   3 O3             1.4506     2.1047    -0.0005 O.co2   
   4 O4            -0.7769     2.0814    -1.2586 O.co2   
   5 C5            -0.8682     2.1474     1.5031 C.2     
   6 C6            -0.2826     2.4109     2.6882 C.2     
   7 C7            -1.2990     2.8372     3.5651 C.2     
   8 C8            -2.4612     2.8104     2.8600 C.2     
   9 O9            -2.1831     2.3954     1.6090 O.3     
  10 C10           -3.7967     3.1786     3.3749 C.2     
  11 C11           -5.0237     3.1584     2.6577 C.2     
  12 C12           -5.9416     3.5796     3.5695 C.2     
  13 O13           -5.2707     3.8152     4.7077 O.3     
  14 N14           -4.0898     3.5851     4.5895 N.2     
  15 O15           -7.2725     3.7313     3.3679 O.3     
  16 H16            0.7674     2.3129     2.9215 H       
  17 H17           -1.1786     3.1287     4.5980 H       
  18 H18           -5.1887     2.8754     1.6285 H       
@<TRIPOS>BOND
   1    1    2 ar
   2    1    3 ar
   3    1    4 ar
   4    1    5 1
   5    5    6 2
   6    5    9 1
   7    6    7 1
   8    6   16 1
   9    7    8 2
  10    7   17 1
  11    8    9 1
  12    8   10 1
  13   10   11 1
  14   10   14 2
  15   11   12 2
  16   11   18 1
  17   12   13 1
  18   12   15 1
  19   13   14 1

#	End of record

