#	Name: ASD04910431
#	Creating user name:	WinNT
#	Creation time:	15. 06. 2019 20:55

#	Modifying user name:	WinNT
#	Modification time:	15. 06. 2019 20:55

#	Program:	/corina/corina34_cracker 3.40 0067  02.08.2006

@<TRIPOS>MOLECULE
ASD04910431
  71   74    0    0    0
SMALL
NO_CHARGES


@<TRIPOS>ATOM
   1 C1            -1.2053    -0.0279     2.5429 C.ar    
   2 C2            -0.5147    -0.5226     1.4377 C.ar    
   3 N3             0.7327    -0.9574     1.5523 N.ar    
   4 C4             1.3669    -0.9402     2.7061 C.ar    
   5 C5             0.7363    -0.4588     3.8543 C.ar    
   6 C6            -0.5840     0.0081     3.7618 C.ar    
   7 C7             1.4475    -0.4409     5.1469 C.2     
   8 N8             2.7153    -0.8916     5.2248 N.am    
   9 O9             0.8898    -0.0195     6.1419 O.2     
  10 C10            3.4214    -0.8738     6.5083 C.3     
  11 N11           -1.1403    -0.5610     0.2030 N.pl3   
  12 C12           -2.5137    -0.0709     0.0622 C.3     
  13 C13           -2.7697     0.3174    -1.3954 C.3     
  14 C14           -3.4781    -1.1546     0.4702 C.ar    
  15 C15           -1.8075     1.4353    -1.8020 C.3     
  16 C16           -2.0635     1.8236    -3.2596 C.3     
  17 C17           -1.8395     0.6059    -4.1585 C.3     
  18 C18           -2.8017    -0.5120    -3.7520 C.3     
  19 C19           -2.5457    -0.9003    -2.2944 C.3     
  20 C20           -3.0804    -2.4784     0.4422 C.ar    
  21 C21           -4.7575    -0.8224     0.8773 C.ar    
  22 C22           -5.6435    -1.8133     1.2518 C.ar    
  23 C23           -5.2488    -3.1442     1.2193 C.ar    
  24 C24           -3.9624    -3.4741     0.8153 C.ar    
  25 C25           -5.1849     0.6223     0.9127 C.3     
  26 N26           -6.1458    -4.1522     1.5993 N.pl3   
  27 C27           -5.8910    -5.4802     1.6139 C.2     
  28 C28           -7.0105    -6.1095     2.0404 C.2     
  29 C29           -7.9819    -5.1352     2.2950 C.2     
  30 N30           -7.4629    -3.9618     2.0368 N.2     
  31 C31           -7.1811    -7.5971     2.2103 C.3     
  32 F32           -6.8120    -7.9636     3.5090 F       
  33 F33           -8.5194    -7.9411     1.9912 F       
  34 F34           -6.3704    -8.2678     1.2882 F       
  35 C35            4.8326    -1.4347     6.3218 C.3     
  36 C36            5.5590    -1.4164     7.6420 C.2     
  37 O37            6.8216    -1.8653     7.7197 O.3     
  38 O38            5.0048    -0.9978     8.6307 O.2     
  39 C39            7.4591    -1.8179     9.0234 C.3     
  40 H40           -2.2196     0.3278     2.4375 H       
  41 H41            2.3829    -1.3019     2.7645 H       
  42 H42           -1.0981     0.3869     4.6327 H       
  43 H43            3.1602    -1.2277     4.4311 H       
  44 H44            3.4832     0.1508     6.8749 H       
  45 H45            2.8796    -1.4857     7.2296 H       
  46 H46           -0.6692    -0.9124    -0.5686 H       
  47 H47           -2.6556     0.8011     0.7007 H       
  48 H48           -3.7971     0.6649    -1.5038 H       
  49 H49           -1.9671     2.3028    -1.1615 H       
  50 H50           -0.7801     1.0878    -1.6936 H       
  51 H51           -3.0909     2.1711    -3.3679 H       
  52 H52           -1.3781     2.6200    -3.5492 H       
  53 H53           -2.0219     0.8825    -5.1970 H       
  54 H54           -0.8121     0.2584    -4.0502 H       
  55 H55           -3.8291    -0.1645    -3.8604 H       
  56 H56           -2.6421    -1.3795    -4.3924 H       
  57 H57           -1.5183    -1.2478    -2.1860 H       
  58 H58           -3.2312    -1.6967    -2.0047 H       
  59 H59           -2.0793    -2.7344     0.1281 H       
  60 H60           -6.6423    -1.5533     1.5699 H       
  61 H61           -3.6527    -4.5084     0.7886 H       
  62 H62           -5.6159     0.8973    -0.0499 H       
  63 H63           -5.9287     0.7620     1.6972 H       
  64 H64           -4.3191     1.2524     1.1165 H       
  65 H65           -4.9612    -5.9535     1.3350 H       
  66 H66           -8.9857    -5.3194     2.6485 H       
  67 H67            4.7708    -2.4594     5.9552 H       
  68 H68            5.3744    -0.8229     5.6005 H       
  69 H69            6.8894    -2.4228     9.7287 H       
  70 H70            8.4737    -2.2088     8.9461 H       
  71 H71            7.4929    -0.7863     9.3739 H       
@<TRIPOS>BOND
   1    1    2 ar
   2    1    6 ar
   3    1   40 1
   4    2    3 ar
   5    2   11 1
   6    3    4 ar
   7    4    5 ar
   8    4   41 1
   9    5    6 ar
  10    5    7 1
  11    6   42 1
  12    7    8 am
  13    7    9 2
  14    8   10 1
  15    8   43 1
  16   10   35 1
  17   10   44 1
  18   10   45 1
  19   11   12 1
  20   11   46 1
  21   12   13 1
  22   12   14 1
  23   12   47 1
  24   13   15 1
  25   13   19 1
  26   13   48 1
  27   14   20 ar
  28   14   21 ar
  29   15   16 1
  30   15   49 1
  31   15   50 1
  32   16   17 1
  33   16   51 1
  34   16   52 1
  35   17   18 1
  36   17   53 1
  37   17   54 1
  38   18   19 1
  39   18   55 1
  40   18   56 1
  41   19   57 1
  42   19   58 1
  43   20   24 ar
  44   20   59 1
  45   21   22 ar
  46   21   25 1
  47   22   23 ar
  48   22   60 1
  49   23   24 ar
  50   23   26 1
  51   24   61 1
  52   25   62 1
  53   25   63 1
  54   25   64 1
  55   26   27 1
  56   26   30 1
  57   27   28 2
  58   27   65 1
  59   28   29 1
  60   28   31 1
  61   29   30 2
  62   29   66 1
  63   31   32 1
  64   31   33 1
  65   31   34 1
  66   35   36 1
  67   35   67 1
  68   35   68 1
  69   36   37 1
  70   36   38 2
  71   37   39 1
  72   39   69 1
  73   39   70 1
  74   39   71 1

#	End of record

