#	Name: ASD08170296
#	Creating user name:	WinNT
#	Creation time:	15. 06. 2019 21:17

#	Modifying user name:	WinNT
#	Modification time:	15. 06. 2019 21:17

#	Program:	/corina/corina34_cracker 3.40 0067  02.08.2006

@<TRIPOS>MOLECULE
ASD08170296
  69   72    0    0    0
SMALL
NO_CHARGES


@<TRIPOS>ATOM
   1 C1            -0.0162     1.3436     0.0094 C.2     
   2 N2             0.0021    -0.0041     0.0020 N.am    
   3 C3             1.2158    -0.6830    -0.0132 C.2     
   4 S4             1.4076    -2.3853    -0.0242 S.3     
   5 C5             3.1580    -2.1679    -0.0404 C.2     
   6 C6             4.1900    -3.2660    -0.0570 C.3     
   7 C7             7.1356    -6.3838     3.2786 C.3     
   8 C8             7.3823    -6.6392     4.7431 C.2     
   9 S9             8.5907    -5.8400     5.7495 S.3     
  10 C10            8.0678    -6.7751     7.0862 C.2     
  11 N11            2.3916    -0.1314    -0.0272 N.2     
  12 N12            3.3971    -0.8949    -0.0360 N.2     
  13 N13            6.7415    -7.4810     5.4904 N.2     
  14 N14            7.1020    -7.5523     6.6983 N.2     
  15 O15            1.0258     1.9642     0.0028 O.2     
  16 C16           -1.3314     2.0792     0.0197 C.3     
  17 C17            4.5536    -3.6458     1.3798 C.3     
  18 C18            6.0928    -5.2751     3.1228 C.3     
  19 N19            8.5909    -6.7128     8.3733 N.am    
  20 C20            8.0910    -7.5042     9.3429 C.2     
  21 C21            8.6578    -7.4367    10.7376 C.3     
  22 O22            7.1849    -8.2707     9.0931 O.2     
  23 C23           -1.0722     3.5871     0.0266 C.3     
  24 C24           -0.3911     3.9945    -1.2818 C.3     
  25 C25            8.5744    -8.4519    13.0206 C.3     
  26 C26            7.9185    -8.4292    11.6372 C.3     
  27 C27            7.7925    -9.4020    13.9320 C.3     
  28 C28            6.3340    -8.9445    14.0065 C.3     
  29 N29            5.7515    -8.9405    12.6585 N.3     
  30 C30            6.4564    -7.9999    11.7782 C.3     
  31 N31           -0.1612     5.4449    -1.2845 N.3     
  32 C32           -1.4280     6.1835    -1.2071 C.3     
  33 C33           -2.1401     5.8414     0.1036 C.3     
  34 C34           -2.4026     4.3338     0.1579 C.3     
  35 S35            5.7958    -4.9677     1.3599 S.3     
  36 H36           -0.8313    -0.5005     0.0073 H       
  37 H37            3.7851    -4.1373    -0.5717 H       
  38 H38            5.0822    -2.9183    -0.5777 H       
  39 H39            8.0663    -6.0769     2.8014 H       
  40 H40            6.7692    -7.2959     2.8074 H       
  41 H41           -1.9035     1.8130    -0.8691 H       
  42 H42           -1.8951     1.8033     0.9108 H       
  43 H43            4.9585    -2.7745     1.8946 H       
  44 H44            3.6614    -3.9935     1.9006 H       
  45 H45            5.1621    -5.5820     3.6000 H       
  46 H46            6.4592    -4.3630     3.5940 H       
  47 H47            9.3156    -6.0998     8.5731 H       
  48 H48            9.7177    -7.6896    10.7117 H       
  49 H49            8.5346    -6.4278    11.1315 H       
  50 H50           -0.4270     3.8416     0.8674 H       
  51 H51            0.5632     3.4754    -1.3715 H       
  52 H52           -1.0305     3.7266    -2.1229 H       
  53 H53            9.6038    -8.7988    12.9301 H       
  54 H54            8.5634    -7.4482    13.4455 H       
  55 H55            7.9652    -9.4248    11.1960 H       
  56 H56            7.8365   -10.4130    13.5272 H       
  57 H57            8.2292    -9.3899    14.9306 H       
  58 H58            5.7714    -9.6271    14.6433 H       
  59 H59            6.2898    -7.9387    14.4242 H       
  60 H60            5.7455    -9.8693    12.2644 H       
  61 H61            6.4116    -6.9986    12.2064 H       
  62 H62            5.9826    -7.9965    10.7966 H       
  63 H63            0.4605     5.7138    -0.5367 H       
  64 H64           -1.2269     7.2542    -1.2424 H       
  65 H65           -2.0626     5.9053    -2.0485 H       
  66 H66           -1.5120     6.1320     0.9457 H       
  67 H67           -3.0877     6.3777     0.1536 H       
  68 H68           -3.0624     4.0492    -0.6617 H       
  69 H69           -2.8707     4.0796     1.1088 H       
@<TRIPOS>BOND
   1    1    2 am
   2    1   15 2
   3    1   16 1
   4    2    3 1
   5    2   36 1
   6    3    4 1
   7    3   11 2
   8    4    5 1
   9    5    6 1
  10    5   12 2
  11    6   17 1
  12    6   37 1
  13    6   38 1
  14    7    8 1
  15    7   18 1
  16    7   39 1
  17    7   40 1
  18    8    9 1
  19    8   13 2
  20    9   10 1
  21   10   19 1
  22   10   14 2
  23   11   12 1
  24   13   14 1
  25   16   23 1
  26   16   41 1
  27   16   42 1
  28   17   35 1
  29   17   43 1
  30   17   44 1
  31   18   35 1
  32   18   45 1
  33   18   46 1
  34   19   20 am
  35   19   47 1
  36   20   21 1
  37   20   22 2
  38   21   26 1
  39   21   48 1
  40   21   49 1
  41   23   24 1
  42   23   34 1
  43   23   50 1
  44   24   31 1
  45   24   51 1
  46   24   52 1
  47   25   26 1
  48   25   27 1
  49   25   53 1
  50   25   54 1
  51   26   30 1
  52   26   55 1
  53   27   28 1
  54   27   56 1
  55   27   57 1
  56   28   29 1
  57   28   58 1
  58   28   59 1
  59   29   30 1
  60   29   60 1
  61   30   61 1
  62   30   62 1
  63   31   32 1
  64   31   63 1
  65   32   33 1
  66   32   64 1
  67   32   65 1
  68   33   34 1
  69   33   66 1
  70   33   67 1
  71   34   68 1
  72   34   69 1

#	End of record

