#	Name: ASD01200203
#	Creating user name:	WinNT
#	Creation time:	15. 06. 2019 19:08

#	Modifying user name:	WinNT
#	Modification time:	15. 06. 2019 19:08

#	Program:	/corina/corina34_cracker 3.40 0067  02.08.2006

@<TRIPOS>MOLECULE
ASD01200203
  38   38    0    0    0
SMALL
NO_CHARGES


@<TRIPOS>ATOM
   1 C1             0.1288     1.1796    -0.2589 C.ar    
   2 C2             0.0470    -0.2007    -0.2328 C.ar    
   3 C3            -1.1781    -0.8175    -0.0594 C.ar    
   4 C4            -2.3217    -0.0553     0.0879 C.ar    
   5 C5            -2.2419     1.3246     0.0617 C.ar    
   6 C6            -1.0162     1.9433    -0.1055 C.ar    
   7 C7            -1.2667    -2.3216    -0.0316 C.3     
   8 C8            -1.8415    -2.7738     1.3123 C.3     
   9 C9            -2.1651    -2.7926    -1.1462 C.2     
  10 N10           -1.6613    -2.9876    -2.3809 N.am    
  11 O11           -3.3409    -2.9960    -0.9321 O.2     
  12 Cl12          -0.9153     3.6761    -0.1380 Cl      
  13 Cl13           1.6669     1.9546    -0.4766 Cl      
  14 C14           -1.7959    -4.3007     1.3986 C.3     
  15 C15           -2.4818    -3.3102    -3.4003 C.2     
  16 N16           -1.9781    -3.5052    -4.6351 N.am    
  17 O17           -3.6761    -3.4253    -3.2061 O.2     
  18 C18           -0.3388    -4.7668     1.4229 C.3     
  19 C19           -2.4997    -4.7605     2.6769 C.3     
  20 C20           -2.8700    -3.8559    -5.7431 C.3     
  21 H21            0.9402    -0.7969    -0.3483 H       
  22 H22           -3.2783    -0.5381     0.2233 H       
  23 H23           -3.1359     1.9195     0.1761 H       
  24 H24           -0.2717    -2.7467    -0.1627 H       
  25 H25           -1.2508    -2.3463     2.1224 H       
  26 H26           -2.8742    -2.4358     1.3980 H       
  27 H27           -0.7082    -2.8957    -2.5360 H       
  28 H28           -2.2999    -4.7288     0.5322 H       
  29 H29           -1.0250    -3.4134    -4.7901 H       
  30 H30            0.1653    -4.3387     2.2893 H       
  31 H31           -0.3063    -5.8546     1.4844 H       
  32 H32            0.1627    -4.4393     0.5122 H       
  33 H33           -3.5378    -4.4284     2.6597 H       
  34 H34           -2.4672    -5.8483     2.7385 H       
  35 H35           -1.9957    -4.3323     3.5434 H       
  36 H36           -3.3807    -4.7918    -5.5162 H       
  37 H37           -3.6065    -3.0643    -5.8812 H       
  38 H38           -2.2864    -3.9725    -6.6563 H       
@<TRIPOS>BOND
   1    1    2 ar
   2    1   13 1
   3    1    6 ar
   4    2    3 ar
   5    2   21 1
   6    3    4 ar
   7    3    7 1
   8    4    5 ar
   9    4   22 1
  10    5    6 ar
  11    5   23 1
  12    6   12 1
  13    7    8 1
  14    7    9 1
  15    7   24 1
  16    8   14 1
  17    8   25 1
  18    8   26 1
  19    9   10 am
  20    9   11 2
  21   10   15 am
  22   10   27 1
  23   14   18 1
  24   14   19 1
  25   14   28 1
  26   15   16 am
  27   15   17 2
  28   16   20 1
  29   16   29 1
  30   18   30 1
  31   18   31 1
  32   18   32 1
  33   19   33 1
  34   19   34 1
  35   19   35 1
  36   20   36 1
  37   20   37 1
  38   20   38 1

#	End of record

