#	Name: ASD03430154
#	Creating user name:	WinNT
#	Creation time:	15. 06. 2019 20:40

#	Modifying user name:	WinNT
#	Modification time:	15. 06. 2019 20:40

#	Program:	/corina/corina34_cracker 3.40 0067  02.08.2006

@<TRIPOS>MOLECULE
ASD03430154
  52   58    0    0    0
SMALL
NO_CHARGES


@<TRIPOS>ATOM
   1 C1            -0.0167     1.3806     0.0096 C.ar    
   2 C2             0.0021    -0.0041     0.0020 C.ar    
   3 C3             1.2035    -0.6814    -0.0133 C.ar    
   4 C4             2.4092     0.0135    -0.0098 C.ar    
   5 C5             2.3874     1.4049    -0.0074 C.ar    
   6 C6             1.1840     2.0869     0.0020 C.ar    
   7 O7             3.4719    -0.8412     0.0036 O.3     
   8 C8             1.5521    -2.1452    -0.0497 C.3     
   9 C9             3.0389    -2.1443    -0.4316 C.3     
  10 C10            0.4260    -3.8639     0.9986 C.ar    
  11 C11            1.3129    -2.8237     1.2663 C.ar    
  12 C12            0.7217    -2.9034    -1.0452 C.2     
  13 N13            0.1004    -3.8836    -0.3597 N.am    
  14 O14            0.6287    -2.6780    -2.2334 O.2     
  15 C15            1.7747    -2.6089     2.5453 C.ar    
  16 C16            1.3589    -3.4291     3.5794 C.ar    
  17 C17            0.4789    -4.4648     3.3251 C.ar    
  18 C18            0.0133    -4.6845     2.0450 C.ar    
  19 O19           -1.0496     2.2737     0.0188 O.3     
  20 C20           -0.4709     3.5263     0.4302 C.3     
  21 O21            0.9023     3.4232     0.0055 O.3     
  22 C22           -0.8104    -4.8564    -0.9683 C.3     
  23 C23           -2.2183    -4.3206    -0.9269 C.2     
  24 O24           -3.0934    -4.5140     0.0700 O.3     
  25 C25           -4.2376    -3.8878    -0.2482 C.2     
  26 C26           -4.0464    -3.3052    -1.4631 C.2     
  27 N27           -2.7740    -3.5935    -1.8494 N.2     
  28 C28           -5.0309    -2.5074    -2.2165 C.2     
  29 O29           -6.1402    -2.3176    -1.7557 O.2     
  30 N30           -4.7016    -1.9884    -3.4160 N.am    
  31 C31           -5.6799    -1.1956    -4.1646 C.3     
  32 C32           -5.1418    -0.1744    -5.1688 C.3     
  33 C33           -5.8036    -1.4610    -5.6664 C.3     
  34 H34           -0.9267    -0.5552     0.0085 H       
  35 H35            3.3162     1.9560    -0.0124 H       
  36 H36            3.1618    -2.2531    -1.5091 H       
  37 H37            3.5760    -2.9287     0.1016 H       
  38 H38            2.4619    -1.7993     2.7418 H       
  39 H39            1.7211    -3.2608     4.5829 H       
  40 H40            0.1548    -5.1051     4.1322 H       
  41 H41           -0.6739    -5.4954     1.8542 H       
  42 H42           -0.9635     4.3590    -0.0718 H       
  43 H43           -0.5329     3.6396     1.5126 H       
  44 H44           -0.5178    -5.0296    -2.0039 H       
  45 H45           -0.7623    -5.7945    -0.4154 H       
  46 H46           -5.1385    -3.8536     0.3465 H       
  47 H47           -3.8168    -2.1398    -3.7835 H       
  48 H48           -6.5894    -0.9371    -3.6223 H       
  49 H49           -5.6974     0.7558    -5.2874 H       
  50 H50           -4.0598    -0.0924    -5.2724 H       
  51 H51           -5.1571    -2.2254    -6.0973 H       
  52 H52           -6.7947    -1.3772    -6.1123 H       
@<TRIPOS>BOND
   1    1    2 ar
   2    1    6 ar
   3    1   19 1
   4    2    3 ar
   5    2   34 1
   6    3    4 ar
   7    3    8 1
   8    4    5 ar
   9    4    7 1
  10    5    6 ar
  11    5   35 1
  12    6   21 1
  13    7    9 1
  14    8    9 1
  15    8   11 1
  16    8   12 1
  17    9   36 1
  18    9   37 1
  19   10   11 ar
  20   10   13 1
  21   10   18 ar
  22   11   15 ar
  23   12   13 am
  24   12   14 2
  25   13   22 1
  26   15   16 ar
  27   15   38 1
  28   16   17 ar
  29   16   39 1
  30   17   18 ar
  31   17   40 1
  32   18   41 1
  33   19   20 1
  34   20   21 1
  35   20   42 1
  36   20   43 1
  37   22   23 1
  38   22   44 1
  39   22   45 1
  40   23   24 1
  41   23   27 2
  42   24   25 1
  43   25   26 2
  44   25   46 1
  45   26   27 1
  46   26   28 1
  47   28   29 2
  48   28   30 am
  49   30   31 1
  50   30   47 1
  51   31   32 1
  52   31   33 1
  53   31   48 1
  54   32   33 1
  55   32   49 1
  56   32   50 1
  57   33   51 1
  58   33   52 1

#	End of record

