#	Name: ASD01913013
#	Creating user name:	WinNT
#	Creation time:	15. 06. 2019 20:00

#	Modifying user name:	WinNT
#	Modification time:	15. 06. 2019 20:00

#	Program:	/corina/corina34_cracker 3.40 0067  02.08.2006

@<TRIPOS>MOLECULE
ASD01913013
  39   41    0    0    0
SMALL
NO_CHARGES


@<TRIPOS>ATOM
   1 C1            -0.0173     1.4278     0.0099 C.ar    
   2 C2             0.0021    -0.0041     0.0020 C.1     
   3 C3             0.0180    -1.1779    -0.0044 C.1     
   4 C4             0.0374    -2.6098    -0.0123 C.ar    
   5 C5            -1.1612    -3.3284    -0.0047 C.ar    
   6 C6             1.2550    -3.2954    -0.0334 C.ar    
   7 C7             1.2658    -4.6745    -0.0408 C.ar    
   8 C8             0.0750    -5.3793    -0.0279 C.ar    
   9 C9            -1.1346    -4.7072    -0.0123 C.ar    
  10 N10            1.1343     2.0913     0.0025 N.ar    
  11 C11            1.1537     3.4115     0.0089 C.ar    
  12 C12           -0.0537     4.1082     0.0237 C.ar    
  13 C13           -1.2418     3.3789     0.0312 C.ar    
  14 N14           -1.1866     2.0597     0.0189 N.ar    
  15 N15           -0.0727     5.5069     0.0314 N.am    
  16 C16            1.0267     6.2803     0.0250 C.2     
  17 C17            0.6350     7.7414     0.0467 C.3     
  18 C18           -0.8474     7.7301     0.4865 C.3     
  19 C19           -1.2955     6.3184     0.0412 C.3     
  20 O20            2.1668     5.8670     0.0051 O.2     
  21 C21           -0.9701     7.8968     2.0024 C.3     
  22 C22           -1.6445     8.8104    -0.2473 C.3     
  23 H23           -2.1060    -2.8052     0.0074 H       
  24 H24            2.1852    -2.7467    -0.0442 H       
  25 H25            2.2060    -5.2057    -0.0571 H       
  26 H26            0.0896    -6.4592    -0.0342 H       
  27 H27           -2.0600    -5.2639    -0.0019 H       
  28 H28            2.0929     3.9448     0.0032 H       
  29 H29           -2.1950     3.8864     0.0426 H       
  30 H30            1.2426     8.2886     0.7675 H       
  31 H31            0.7348     8.1779    -0.9471 H       
  32 H32           -1.7363     6.3593    -0.9549 H       
  33 H33           -2.0101     5.9071     0.7541 H       
  34 H34           -0.5471     8.8570     2.2978 H       
  35 H35           -2.0213     7.8595     2.2882 H       
  36 H36           -0.4293     7.0926     2.5013 H       
  37 H37           -1.5755     8.6455    -1.3226 H       
  38 H38           -2.6889     8.7639     0.0612 H       
  39 H39           -1.2369     9.7914    -0.0033 H       
@<TRIPOS>BOND
   1    1    2 1
   2    1   10 ar
   3    1   14 ar
   4    2    3 3
   5    3    4 1
   6    4    5 ar
   7    4    6 ar
   8    5    9 ar
   9    5   23 1
  10    6    7 ar
  11    6   24 1
  12    7    8 ar
  13    7   25 1
  14    8    9 ar
  15    8   26 1
  16    9   27 1
  17   10   11 ar
  18   11   12 ar
  19   11   28 1
  20   12   13 ar
  21   12   15 1
  22   13   14 ar
  23   13   29 1
  24   15   16 am
  25   15   19 1
  26   16   17 1
  27   16   20 2
  28   17   18 1
  29   17   30 1
  30   17   31 1
  31   18   19 1
  32   18   21 1
  33   18   22 1
  34   19   32 1
  35   19   33 1
  36   21   34 1
  37   21   35 1
  38   21   36 1
  39   22   37 1
  40   22   38 1
  41   22   39 1

#	End of record

