#	Name: ASD08150307
#	Creating user name:	WinNT
#	Creation time:	15. 06. 2019 21:15

#	Modifying user name:	WinNT
#	Modification time:	15. 06. 2019 21:15

#	Program:	/corina/corina34_cracker 3.40 0067  02.08.2006

@<TRIPOS>MOLECULE
ASD08150307
  37   40    0    0    0
SMALL
NO_CHARGES


@<TRIPOS>ATOM
   1 O1            -0.0161     1.3326     0.0094 O.3     
   2 C2             0.0021    -0.0041     0.0020 C.2     
   3 N3             1.2335    -0.5302    -0.0132 N.am    
   4 C4             2.2214     0.5579    -0.0179 C.3     
   5 C5             1.3476     1.8421    -0.0009 C.3     
   6 O6             2.9632     1.9788     1.7274 O.3     
   7 C7             2.9499     0.5870     1.3432 C.3     
   8 C8             1.6596     2.4848     1.3679 C.3     
   9 O9            -1.0072    -0.6804     0.0092 O.2     
  10 C10            3.0760    -3.5970     0.0544 C.ar    
  11 N11            2.7892    -2.3039     0.0626 N.ar    
  12 C12            1.5300    -1.8885    -0.0227 C.ar    
  13 C13            0.5099    -2.8343    -0.1214 C.ar    
  14 C14            0.8514    -4.1752    -0.1265 C.ar    
  15 N15            2.1289    -4.5186    -0.0382 N.ar    
  16 O16            6.6021    -5.2850     1.3092 O.3     
  17 C17            5.9892    -5.8554     0.1498 C.3     
  18 C18            4.5103    -5.4609     0.1146 C.3     
  19 N19            4.3987    -3.9952     0.1390 N.3     
  20 C20            5.0390    -3.4440     1.3421 C.3     
  21 C21            6.5125    -3.8587     1.3650 C.3     
  22 Cl22          -0.3789    -5.3940    -0.2468 Cl      
  23 H23            2.8982     0.5124    -0.8711 H       
  24 H24            1.5454     2.5036    -0.8443 H       
  25 H25            2.4036    -0.0040     2.0783 H       
  26 H26            3.9683     0.2134     1.2362 H       
  27 H27            1.6855     3.5709     1.2797 H       
  28 H28            0.9181     2.1812     2.1070 H       
  29 H29           -0.5232    -2.5271    -0.1917 H       
  30 H30            6.4867    -5.4827    -0.7456 H       
  31 H31            6.0754    -6.9413     0.1895 H       
  32 H32            4.0526    -5.8457    -0.7967 H       
  33 H33            4.0013    -5.8792     0.9829 H       
  34 H34            4.9671    -2.3565     1.3268 H       
  35 H35            4.5384    -3.8300     2.2301 H       
  36 H36            6.9772    -3.5005     2.2836 H       
  37 H37            7.0253    -3.4279     0.5050 H       
@<TRIPOS>BOND
   1    1    2 1
   2    1    5 1
   3    2    3 am
   4    2    9 2
   5    3    4 1
   6    3   12 1
   7    4    5 1
   8    4    7 1
   9    4   23 1
  10    5    8 1
  11    5   24 1
  12    6    7 1
  13    6    8 1
  14    7   25 1
  15    7   26 1
  16    8   27 1
  17    8   28 1
  18   10   11 ar
  19   10   15 ar
  20   10   19 1
  21   11   12 ar
  22   12   13 ar
  23   13   14 ar
  24   13   29 1
  25   14   15 ar
  26   14   22 1
  27   16   17 1
  28   16   21 1
  29   17   18 1
  30   17   30 1
  31   17   31 1
  32   18   19 1
  33   18   32 1
  34   18   33 1
  35   19   20 1
  36   20   21 1
  37   20   34 1
  38   20   35 1
  39   21   36 1
  40   21   37 1

#	End of record

