#	Name: ASD05842036
#	Creating user name:	WinNT
#	Creation time:	15. 06. 2019 21:04

#	Modifying user name:	WinNT
#	Modification time:	15. 06. 2019 21:04

#	Program:	/corina/corina34_cracker 3.40 0067  02.08.2006

@<TRIPOS>MOLECULE
ASD05842036
  37   39    0    0    0
SMALL
NO_CHARGES


@<TRIPOS>ATOM
   1 C1            -0.0168     1.3891     0.0097 C.ar    
   2 C2             0.0021    -0.0041     0.0020 C.ar    
   3 C3             1.1784    -0.6890    -0.0125 C.ar    
   4 C4             2.3935     0.0164    -0.0203 C.ar    
   5 C5             2.3742     1.4337    -0.0130 C.ar    
   6 C6             1.1405     2.1058     0.0025 C.ar    
   7 C7             3.6277    -0.6558    -0.0347 C.ar    
   8 C8             4.7846     0.0608    -0.0415 C.ar    
   9 C9             4.7657     1.4544    -0.0344 C.ar    
  10 C10            3.5898     2.1393    -0.0205 C.ar    
  11 C11            6.0670     2.2144    -0.0424 C.3     
  12 N12            6.4763     2.4675    -1.4261 N.pl3   
  13 C13            6.0412     3.6896    -2.1068 C.3     
  14 C14            7.0530     4.7818    -1.8737 C.ar    
  15 C15            7.2572     1.5712    -2.0764 C.1     
  16 N16            7.9119     0.8198    -2.6215 N.1     
  17 C17            8.1085     4.9450    -2.7513 C.ar    
  18 C18            9.0367     5.9468    -2.5374 C.ar    
  19 C19            8.9091     6.7858    -1.4462 C.ar    
  20 C20            7.8531     6.6232    -0.5691 C.ar    
  21 C21            6.9225     5.6241    -0.7854 C.ar    
  22 H22           -0.9639     1.9082     0.0170 H       
  23 H23           -0.9305    -0.5487     0.0080 H       
  24 H24            1.1776    -1.7690    -0.0176 H       
  25 H25            1.1105     3.1854     0.0078 H       
  26 H26            3.6578    -1.7354    -0.0400 H       
  27 H27            5.7317    -0.4582    -0.0522 H       
  28 H28            3.5906     3.2192    -0.0155 H       
  29 H29            5.9367     3.1636     0.4773 H       
  30 H30            6.8342     1.6265     0.4616 H       
  31 H31            5.9531     3.4982    -3.1762 H       
  32 H32            5.0737     4.0004    -1.7124 H       
  33 H33            8.2082     4.2895    -3.6038 H       
  34 H34            9.8617     6.0738    -3.2227 H       
  35 H35            9.6346     7.5680    -1.2787 H       
  36 H36            7.7536     7.2784     0.2836 H       
  37 H37            6.0975     5.4971    -0.1001 H       
@<TRIPOS>BOND
   1    1    2 ar
   2    1    6 ar
   3    1   22 1
   4    2    3 ar
   5    2   23 1
   6    3    4 ar
   7    3   24 1
   8    4    5 ar
   9    4    7 ar
  10    5    6 ar
  11    5   10 ar
  12    6   25 1
  13    7    8 ar
  14    7   26 1
  15    8    9 ar
  16    8   27 1
  17    9   10 ar
  18    9   11 1
  19   10   28 1
  20   11   12 1
  21   11   29 1
  22   11   30 1
  23   12   13 1
  24   12   15 1
  25   13   14 1
  26   13   31 1
  27   13   32 1
  28   14   17 ar
  29   14   21 ar
  30   15   16 3
  31   17   18 ar
  32   17   33 1
  33   18   19 ar
  34   18   34 1
  35   19   20 ar
  36   19   35 1
  37   20   21 ar
  38   20   36 1
  39   21   37 1

#	End of record

