#	Name: ASD05430674
#	Creating user name:	WinNT
#	Creation time:	15. 06. 2019 21:00

#	Modifying user name:	WinNT
#	Modification time:	15. 06. 2019 21:00

#	Program:	/corina/corina34_cracker 3.40 0067  02.08.2006

@<TRIPOS>MOLECULE
ASD05430674
  21   21    0    0    0
SMALL
NO_CHARGES


@<TRIPOS>ATOM
   1 C1            -0.0167     1.3801     0.0096 C.ar    
   2 C2             0.0021    -0.0041     0.0020 C.ar    
   3 C3            -1.1872    -0.7125     0.0101 C.ar    
   4 C4            -2.4140     1.3474     0.0439 C.ar    
   5 C5            -1.2247     2.0559     0.0306 C.ar    
   6 C6             1.2780     2.1513     0.0014 C.3     
   7 C7            -2.3953    -0.0367     0.0257 C.ar    
   8 C8             1.3352     3.0386    -1.2437 C.3     
   9 C9             1.3590     3.0252     1.2546 C.3     
  10 F10           -3.5560    -0.7281     0.0331 F       
  11 F11            1.1811    -0.6636    -0.0137 F       
  12 F12           -1.2429     3.4066     0.0488 F       
  13 H13           -1.1726    -1.7924     0.0038 H       
  14 H14           -3.3564     1.8746     0.0603 H       
  15 H15            2.1160     1.4543    -0.0103 H       
  16 H16            0.4972     3.7356    -1.2319 H       
  17 H17            2.2716     3.5964    -1.2496 H       
  18 H18            1.2775     2.4160    -2.1365 H       
  19 H19            1.3183     2.3931     2.1417 H       
  20 H20            2.2955     3.5830     1.2487 H       
  21 H21            0.5211     3.7222     1.2664 H       
@<TRIPOS>BOND
   1    1    2 ar
   2    1    6 1
   3    1    5 ar
   4    2    3 ar
   5    2   11 1
   6    3    7 ar
   7    3   13 1
   8    4    5 ar
   9    4    7 ar
  10    4   14 1
  11    5   12 1
  12    6    8 1
  13    6    9 1
  14    6   15 1
  15    7   10 1
  16    8   16 1
  17    8   17 1
  18    8   18 1
  19    9   19 1
  20    9   20 1
  21    9   21 1

#	End of record

