#	Name: ASD04882309
#	Creating user name:	WinNT
#	Creation time:	15. 06. 2019 20:54

#	Modifying user name:	WinNT
#	Modification time:	15. 06. 2019 20:54

#	Program:	/corina/corina34_cracker 3.40 0067  02.08.2006

@<TRIPOS>MOLECULE
ASD04882309
  77   82    0    0    0
SMALL
NO_CHARGES


@<TRIPOS>ATOM
   1 N1            -0.0169     1.3970     0.0097 N.am    
   2 C2             0.1097     0.0022    -0.0340 C.ar    
   3 C3            -1.0276    -0.8061     0.0459 C.ar    
   4 C4            -0.9035    -2.1901     0.0027 C.ar    
   5 C5             0.3398    -2.7696    -0.1194 C.ar    
   6 C6             1.4813    -1.9670    -0.2002 C.ar    
   7 C7             1.3588    -0.5752    -0.1618 C.ar    
   8 N8            -2.2868    -0.2245     0.1694 N.3     
   9 C9            -3.1529    -0.5994    -0.9570 C.3     
  10 C10           -2.9095    -0.5838     1.4511 C.3     
  11 C11           -4.2532     0.1371     1.5823 C.3     
  12 N12           -5.1193    -0.2379     0.4558 N.3     
  13 C13           -4.4966     0.1215    -0.8259 C.3     
  14 C14            2.8131    -2.5880    -0.3310 C.2     
  15 O15            3.8056    -1.8890    -0.4013 O.2     
  16 C16            0.9210     2.1770    -0.5632 C.2     
  17 C17            0.7440     3.6400    -0.5949 C.2     
  18 O18            1.9136     1.6738    -1.0541 O.2     
  19 N19            2.9297    -3.9301    -0.3727 N.am    
  20 C20           -6.3823     0.3456     0.5797 C.ar    
  21 C21           -6.5091     1.7280     0.6236 C.ar    
  22 C22           -7.5150    -0.4555     0.6536 C.ar    
  23 C23           -8.7621     0.1246     0.7761 C.ar    
  24 C24           -8.8844     1.5014     0.8248 C.ar    
  25 C25           -7.7596     2.3016     0.7462 C.ar    
  26 C26            4.2523    -4.5467    -0.5026 C.3     
  27 C27            4.1072    -6.0466    -0.5251 C.ar    
  28 C28            3.9364    -6.7057    -1.7298 C.ar    
  29 N29           -0.3086     4.3381    -0.0886 N.2     
  30 C30           -0.1071     5.6030    -0.3070 C.2     
  31 O31            1.0592     5.7603    -0.9489 O.3     
  32 C32            1.6053     4.5473    -1.1309 C.2     
  33 C33           -1.0379     6.7173     0.0970 C.3     
  34 C34           -0.4922     7.7832     1.0493 C.3     
  35 C35           -0.7267     8.1217    -0.4243 C.3     
  36 C36           -7.3829    -1.9557     0.5996 C.3     
  37 C37            4.1506    -6.7599     0.6547 C.ar    
  38 C38            4.0165    -8.1492     0.6320 C.ar    
  39 C39            3.8392    -8.8072    -0.5858 C.ar    
  40 C40            3.8025    -8.0822    -1.7592 C.ar    
  41 C41            4.0625    -8.9202     1.8927 C.2     
  42 N42            3.9327   -10.2615     1.8674 N.am    
  43 O43            4.2174    -8.3445     2.9519 O.2     
  44 H44           -0.7817     1.8010     0.4488 H       
  45 H45           -1.7841    -2.8123     0.0653 H       
  46 H46            0.4330    -3.8451    -0.1524 H       
  47 H47            2.2391     0.0475    -0.2240 H       
  48 H48           -2.6759    -0.3119    -1.8940 H       
  49 H49           -3.3159    -1.6771    -0.9474 H       
  50 H50           -3.0697    -1.6613     1.4881 H       
  51 H51           -2.2550    -0.2848     2.2699 H       
  52 H52           -4.7302    -0.1505     2.5192 H       
  53 H53           -4.0902     1.2148     1.5726 H       
  54 H54           -4.3364     1.1990    -0.8629 H       
  55 H55           -5.1511    -0.1775    -1.6446 H       
  56 H56            2.1380    -4.4877    -0.3166 H       
  57 H57           -5.6310     2.3536     0.5623 H       
  58 H58           -9.6431    -0.4975     0.8335 H       
  59 H59           -9.8610     1.9525     0.9199 H       
  60 H60           -7.8586     3.3764     0.7846 H       
  61 H61            4.7194    -4.2130    -1.4291 H       
  62 H62            4.8741    -4.2545     0.3436 H       
  63 H63            3.9073    -6.1429    -2.6511 H       
  64 H64            2.5458     4.3321    -1.6163 H       
  65 H65           -2.0868     6.4394     0.2004 H       
  66 H66           -1.1822     8.2069     1.7789 H       
  67 H67            0.5400     7.6786     1.3836 H       
  68 H68            0.1512     8.2397    -1.0594 H       
  69 H69           -1.5710     8.7680    -0.6641 H       
  70 H70           -7.2637    -2.3465     1.6101 H       
  71 H71           -8.2780    -2.3833     0.1479 H       
  72 H72           -6.5114    -2.2224     0.0017 H       
  73 H73            4.2883    -6.2447     1.5939 H       
  74 H74            3.7349    -9.8819    -0.6102 H       
  75 H75            3.6650    -8.5902    -2.7024 H       
  76 H76            3.8091   -10.7210     1.0221 H       
  77 H77            3.9629   -10.7674     2.6945 H       
@<TRIPOS>BOND
   1    1    2 1
   2    1   16 am
   3    1   44 1
   4    2    3 ar
   5    2    7 ar
   6    3    4 ar
   7    3    8 1
   8    4    5 ar
   9    4   45 1
  10    5    6 ar
  11    5   46 1
  12    6    7 ar
  13    6   14 1
  14    7   47 1
  15    8    9 1
  16    8   10 1
  17    9   13 1
  18    9   48 1
  19    9   49 1
  20   10   11 1
  21   10   50 1
  22   10   51 1
  23   11   12 1
  24   11   52 1
  25   11   53 1
  26   12   13 1
  27   12   20 1
  28   13   54 1
  29   13   55 1
  30   14   15 2
  31   14   19 am
  32   16   18 2
  33   16   17 1
  34   17   29 1
  35   17   32 2
  36   19   26 1
  37   19   56 1
  38   20   21 ar
  39   20   22 ar
  40   21   25 ar
  41   21   57 1
  42   22   23 ar
  43   22   36 1
  44   23   24 ar
  45   23   58 1
  46   24   25 ar
  47   24   59 1
  48   25   60 1
  49   26   27 1
  50   26   61 1
  51   26   62 1
  52   27   28 ar
  53   27   37 ar
  54   28   40 ar
  55   28   63 1
  56   29   30 2
  57   30   31 1
  58   30   33 1
  59   31   32 1
  60   32   64 1
  61   33   34 1
  62   33   35 1
  63   33   65 1
  64   34   35 1
  65   34   66 1
  66   34   67 1
  67   35   68 1
  68   35   69 1
  69   36   70 1
  70   36   71 1
  71   36   72 1
  72   37   38 ar
  73   37   73 1
  74   38   39 ar
  75   38   41 1
  76   39   40 ar
  77   39   74 1
  78   40   75 1
  79   41   42 am
  80   41   43 2
  81   42   76 1
  82   42   77 1

#	End of record

