#	Name: ASD01200292
#	Creating user name:	WinNT
#	Creation time:	15. 06. 2019 19:08

#	Modifying user name:	WinNT
#	Modification time:	15. 06. 2019 19:08

#	Program:	/corina/corina34_cracker 3.40 0067  02.08.2006

@<TRIPOS>MOLECULE
ASD01200292
  66   68    0    0    0
SMALL
NO_CHARGES


@<TRIPOS>ATOM
   1 C1             0.0589     1.0479     0.1373 C.ar    
   2 C2            -0.0788    -0.3326     0.1124 C.ar    
   3 C3            -1.3407    -0.9071     0.0717 C.ar    
   4 C4            -2.4694    -0.1041     0.0561 C.ar    
   5 C5            -2.3356     1.2844     0.0814 C.ar    
   6 C6            -1.0642     1.8581     0.1277 C.ar    
   7 O7             1.2976     1.6057     0.1767 O.3     
   8 C8             1.3712     3.0297     0.0826 C.3     
   9 C9             2.7390     3.4342    -0.4709 C.3     
  10 O10            3.7581     3.0636     0.4598 O.3     
  11 C11            5.0813     3.3987     0.0368 C.3     
  12 C12            1.1814     3.6430     1.4714 C.3     
  13 O13           -1.4700    -2.2598     0.0466 O.3     
  14 C14           -0.2684    -3.0242    -0.0720 C.3     
  15 C15           -0.5465    -4.2881    -0.8882 C.3     
  16 C16           -0.9157    -3.9044    -2.2980 C.ar    
  17 C17            0.0687    -3.7784    -3.2604 C.ar    
  18 C18           -0.2700    -3.4265    -4.5535 C.ar    
  19 C19           -1.5930    -3.2010    -4.8845 C.ar    
  20 C20           -2.5775    -3.3279    -3.9224 C.ar    
  21 C21           -2.2393    -3.6841    -2.6303 C.ar    
  22 C22           -3.5371     2.1453     0.0648 C.2     
  23 N23           -3.4056     3.4864     0.0894 N.am    
  24 O24           -4.6437     1.6437     0.0291 O.2     
  25 C25           -4.5326     4.2933     0.1814 C.ar    
  26 C26           -4.3805     5.6718     0.3136 C.ar    
  27 N27           -5.7365     3.7405     0.1365 N.ar    
  28 C28           -5.4923     6.4652     0.4036 C.ar    
  29 C29           -6.7568     5.8538     0.3589 C.ar    
  30 C30           -6.8330     4.4643     0.2194 C.ar    
  31 C31           -7.9802     6.6625     0.4522 C.2     
  32 C32           -9.1905     6.0639     0.4081 C.2     
  33 C33            0.2265    -3.4158     1.3218 C.3     
  34 C34          -10.3710     6.8441     0.4981 C.2     
  35 O35          -11.5798     6.2463     0.4540 O.3     
  36 O36          -10.2939     8.0525     0.6151 O.2     
  37 H37            0.7990    -0.9616     0.1245 H       
  38 H38           -3.4515    -0.5523     0.0240 H       
  39 H39           -0.9561     2.9325     0.1474 H       
  40 H40            0.5882     3.3907    -0.5841 H       
  41 H41            2.9116     2.9264    -1.4199 H       
  42 H42            2.7636     4.5128    -0.6262 H       
  43 H43            5.7963     3.0848     0.7973 H       
  44 H44            5.3024     2.8902    -0.9016 H       
  45 H45            5.1545     4.4765    -0.1080 H       
  46 H46            1.9644     3.2819     2.1382 H       
  47 H47            1.2375     4.7292     1.3997 H       
  48 H48            0.2070     3.3548     1.8658 H       
  49 H49            0.4936    -2.4279    -0.5738 H       
  50 H50            0.3457    -4.9141    -0.9038 H       
  51 H51           -1.3696    -4.8399    -0.4344 H       
  52 H52            1.1024    -3.9545    -3.0018 H       
  53 H53            0.4992    -3.3273    -5.3052 H       
  54 H54           -1.8575    -2.9254    -5.8947 H       
  55 H55           -3.6111    -3.1515    -4.1810 H       
  56 H56           -3.0084    -3.7833    -1.8786 H       
  57 H57           -2.5239     3.8882     0.0428 H       
  58 H58           -3.3941     6.1106     0.3451 H       
  59 H59           -5.3999     7.5363     0.5070 H       
  60 H60           -7.7983     3.9812     0.1832 H       
  61 H61           -7.9118     7.7353     0.5560 H       
  62 H62           -9.2589     4.9911     0.3042 H       
  63 H63           -0.5355    -4.0122     1.8236 H       
  64 H64            1.1430    -3.9989     1.2313 H       
  65 H65            0.4246    -2.5154     1.9033 H       
  66 H66          -12.3245     6.8594     0.5226 H       
@<TRIPOS>BOND
   1    1    2 ar
   2    1    7 1
   3    1    6 ar
   4    2    3 ar
   5    2   37 1
   6    3    4 ar
   7    3   13 1
   8    4    5 ar
   9    4   38 1
  10    5    6 ar
  11    5   22 1
  12    6   39 1
  13    7    8 1
  14    8    9 1
  15    8   12 1
  16    8   40 1
  17    9   10 1
  18    9   41 1
  19    9   42 1
  20   10   11 1
  21   11   43 1
  22   11   44 1
  23   11   45 1
  24   12   46 1
  25   12   47 1
  26   12   48 1
  27   13   14 1
  28   14   15 1
  29   14   33 1
  30   14   49 1
  31   15   16 1
  32   15   50 1
  33   15   51 1
  34   16   17 ar
  35   16   21 ar
  36   17   18 ar
  37   17   52 1
  38   18   19 ar
  39   18   53 1
  40   19   20 ar
  41   19   54 1
  42   20   21 ar
  43   20   55 1
  44   21   56 1
  45   22   23 am
  46   22   24 2
  47   23   25 1
  48   23   57 1
  49   25   26 ar
  50   25   27 ar
  51   26   28 ar
  52   26   58 1
  53   27   30 ar
  54   28   29 ar
  55   28   59 1
  56   29   30 ar
  57   29   31 1
  58   30   60 1
  59   31   32 2
  60   31   61 1
  61   32   34 1
  62   32   62 1
  63   33   63 1
  64   33   64 1
  65   33   65 1
  66   34   35 1
  67   34   36 2
  68   35   66 1

#	End of record

