#	Name: ASD01814518
#	Creating user name:	WinNT
#	Creation time:	15. 06. 2019 19:32

#	Modifying user name:	WinNT
#	Modification time:	15. 06. 2019 19:32

#	Program:	/corina/corina34_cracker 3.40 0067  02.08.2006

@<TRIPOS>MOLECULE
ASD01814518
  49   52    0    0    0
SMALL
NO_CHARGES


@<TRIPOS>ATOM
   1 C1            -0.0168     1.3907     0.0097 C.ar    
   2 C2             0.0021    -0.0041     0.0020 C.ar    
   3 C3             1.1659    -0.6980    -0.0129 C.ar    
   4 C4             2.4022    -0.0043    -0.0210 C.ar    
   5 C5             2.3824     1.4563    -0.0130 C.ar    
   6 C6             1.1277     2.1160     0.0027 C.ar    
   7 N7             3.6480    -0.4503    -0.0353 N.2     
   8 S8             4.6293     0.7565    -0.0383 S.3     
   9 N9             3.6156     1.9360    -0.0222 N.2     
  10 S10            1.1427    -2.4598    -0.0215 S.o2    
  11 O11            2.0498    -2.8780     0.9891 O.2     
  12 O12           -0.2255    -2.8429    -0.0448 O.2     
  13 N13            1.7906    -2.9515    -1.4640 N.am    
  14 C14            3.1963    -2.6732    -1.7684 C.3     
  15 C15            3.6412    -3.5321    -2.9538 C.3     
  16 C16            5.0873    -3.2458    -3.2669 C.2     
  17 N17            5.6979    -3.8912    -4.2804 N.am    
  18 O18            5.7015    -2.4347    -2.6069 O.2     
  19 C19            7.1083    -3.6268    -4.6028 C.3     
  20 C20            7.8504    -4.9656    -4.6750 C.3     
  21 N21            7.1553    -5.8572    -5.6130 N.3     
  22 C22            5.7977    -6.1681    -5.1460 C.3     
  23 C23            4.9732    -4.8830    -5.0893 C.3     
  24 C24            7.8869    -7.0210    -5.8299 C.ar    
  25 C25            7.4146    -8.0134    -6.6887 C.ar    
  26 C26            8.1698    -9.1519    -6.8764 C.ar    
  27 N27            9.3243    -9.3081    -6.2560 N.ar    
  28 C28            9.8051    -8.3924    -5.4358 C.ar    
  29 C29            9.1141    -7.2229    -5.1986 C.ar    
  30 H30           -0.9666     1.9049     0.0169 H       
  31 H31           -0.9333    -0.5439     0.0085 H       
  32 H32            1.0842     3.1951     0.0085 H       
  33 H33            1.2393    -3.4238    -2.1074 H       
  34 H34            3.3118    -1.6189    -2.0200 H       
  35 H35            3.8099    -2.9084    -0.8987 H       
  36 H36            3.5258    -4.5864    -2.7022 H       
  37 H37            3.0277    -3.2969    -3.8235 H       
  38 H38            7.1750    -3.1189    -5.5650 H       
  39 H39            7.5511    -3.0041    -3.8255 H       
  40 H40            8.8704    -4.7979    -5.0206 H       
  41 H41            7.8717    -5.4234    -3.6860 H       
  42 H42            5.3290    -6.8724    -5.8333 H       
  43 H43            5.8475    -6.6091    -4.1505 H       
  44 H44            4.0037    -5.0897    -4.6360 H       
  45 H45            4.8335    -4.4928    -6.0974 H       
  46 H46            6.4707    -7.8921    -7.1991 H       
  47 H47            7.8118    -9.9257    -7.5393 H       
  48 H48           10.7539    -8.5594    -4.9476 H       
  49 H49            9.5133    -6.4777    -4.5266 H       
@<TRIPOS>BOND
   1    1    2 ar
   2    1    6 ar
   3    1   30 1
   4    2    3 ar
   5    2   31 1
   6    3    4 ar
   7    3   10 1
   8    4    5 ar
   9    4    7 2
  10    5    6 ar
  11    5    9 2
  12    6   32 1
  13    7    8 1
  14    8    9 1
  15   10   11 2
  16   10   12 2
  17   10   13 am
  18   13   14 1
  19   13   33 1
  20   14   15 1
  21   14   34 1
  22   14   35 1
  23   15   16 1
  24   15   36 1
  25   15   37 1
  26   16   17 am
  27   16   18 2
  28   17   19 1
  29   17   23 1
  30   19   20 1
  31   19   38 1
  32   19   39 1
  33   20   21 1
  34   20   40 1
  35   20   41 1
  36   21   22 1
  37   21   24 1
  38   22   23 1
  39   22   42 1
  40   22   43 1
  41   23   44 1
  42   23   45 1
  43   24   25 ar
  44   24   29 ar
  45   25   26 ar
  46   25   46 1
  47   26   27 ar
  48   26   47 1
  49   27   28 ar
  50   28   29 ar
  51   28   48 1
  52   29   49 1

#	End of record

