#	Name: ASD07000008
#	Creating user name:	WinNT
#	Creation time:	15. 06. 2019 21:08

#	Modifying user name:	WinNT
#	Modification time:	15. 06. 2019 21:08

#	Program:	/corina/corina34_cracker 3.40 0067  02.08.2006

@<TRIPOS>MOLECULE
ASD07000008
  45   47    0    0    0
SMALL
NO_CHARGES


@<TRIPOS>ATOM
   1 S1            -0.0220     1.7686     0.0118 S.3     
   2 C2             0.0021    -0.0041     0.0020 C.2     
   3 O3            -0.9696    -0.7347     0.0074 O.2     
   4 N4             1.2791    -0.3919    -0.0123 N.am    
   5 C5             2.2642     0.4903    -0.0169 C.2     
   6 O6             3.4349     0.1754    -0.0304 O.2     
   7 C7             1.7956     1.9289    -0.0047 C.3     
   8 C8             2.2628     2.6608    -1.2645 C.3     
   9 C9             1.7825     4.0886    -1.2231 C.ar    
  10 C10            2.5706     5.0653    -0.6429 C.ar    
  11 C11            2.1326     6.3749    -0.6037 C.ar    
  12 C12            0.9009     6.7097    -1.1472 C.ar    
  13 C13            0.1120     5.7279    -1.7289 C.ar    
  14 C14            0.5571     4.4207    -1.7706 C.ar    
  15 O15            0.4676     7.9972    -1.1095 O.3     
  16 C16           -0.8104     8.2689    -1.6883 C.3     
  17 C17           -1.1253     9.7599    -1.5523 C.3     
  18 C18           -2.4731    10.0464    -2.1627 C.ar    
  19 N19           -2.7103     9.6970    -3.4118 N.ar    
  20 C20           -3.8743     9.9275    -3.9873 C.ar    
  21 C21           -4.8948    10.5496    -3.2938 C.ar    
  22 C22           -4.6826    10.9316    -1.9777 C.ar    
  23 C23           -3.4482    10.6672    -1.4048 C.ar    
  24 C24           -6.2216    10.8100    -3.9593 C.3     
  25 C25           -7.1482     9.6134    -3.7351 C.3     
  26 H26            1.4886    -1.3390    -0.0190 H       
  27 H27            2.1456     2.4407     0.8918 H       
  28 H28            3.3517     2.6449    -1.3112 H       
  29 H29            1.8541     2.1653    -2.1452 H       
  30 H30            3.5292     4.8041    -0.2195 H       
  31 H31            2.7484     7.1374    -0.1500 H       
  32 H32           -0.8472     5.9860    -2.1527 H       
  33 H33           -0.0547     3.6567    -2.2272 H       
  34 H34           -0.7970     7.9951    -2.7433 H       
  35 H35           -1.5741     7.6876    -1.1717 H       
  36 H36           -1.1386    10.0337    -0.4973 H       
  37 H37           -0.3615    10.3412    -2.0689 H       
  38 H38           -4.0317     9.6269    -5.0126 H       
  39 H39           -5.4618    11.4199    -1.4112 H       
  40 H40           -3.2495    10.9467    -0.3807 H       
  41 H41           -6.6735    11.7048    -3.5312 H       
  42 H42           -6.0691    10.9562    -5.0287 H       
  43 H43           -6.6964     8.7187    -4.1633 H       
  44 H44           -7.3007     9.4673    -2.6658 H       
  45 H45           -8.1079     9.8018    -4.2166 H       
@<TRIPOS>BOND
   1    1    2 1
   2    1    7 1
   3    2    3 2
   4    2    4 am
   5    4    5 am
   6    4   26 1
   7    5    6 2
   8    5    7 1
   9    7    8 1
  10    7   27 1
  11    8    9 1
  12    8   28 1
  13    8   29 1
  14    9   10 ar
  15    9   14 ar
  16   10   11 ar
  17   10   30 1
  18   11   12 ar
  19   11   31 1
  20   12   13 ar
  21   12   15 1
  22   13   14 ar
  23   13   32 1
  24   14   33 1
  25   15   16 1
  26   16   17 1
  27   16   34 1
  28   16   35 1
  29   17   18 1
  30   17   36 1
  31   17   37 1
  32   18   19 ar
  33   18   23 ar
  34   19   20 ar
  35   20   21 ar
  36   20   38 1
  37   21   22 ar
  38   21   24 1
  39   22   23 ar
  40   22   39 1
  41   23   40 1
  42   24   25 1
  43   24   41 1
  44   24   42 1
  45   25   43 1
  46   25   44 1
  47   25   45 1

#	End of record

