#	Name: ASD01230472
#	Creating user name:	WinNT
#	Creation time:	15. 06. 2019 19:14

#	Modifying user name:	WinNT
#	Modification time:	15. 06. 2019 19:14

#	Program:	/corina/corina34_cracker 3.40 0067  02.08.2006

@<TRIPOS>MOLECULE
ASD01230472
  42   45    0    0    0
SMALL
NO_CHARGES


@<TRIPOS>ATOM
   1 C1             1.7605    -1.5518     3.5523 C.ar    
   2 C2             2.8039    -0.6383     3.5193 C.ar    
   3 C3             3.4147    -0.3305     2.3194 C.ar    
   4 C4             2.9849    -0.9353     1.1471 C.ar    
   5 C5             1.9417    -1.8492     1.1803 C.ar    
   6 C6             1.3308    -2.1565     2.3803 C.ar    
   7 O7             1.1627    -1.8586     4.7344 O.3     
   8 O8             3.5858    -0.6321    -0.0341 O.3     
   9 C9             4.6714     0.1845    -0.0065 C.ar    
  10 C10            5.9408    -0.3560     0.1516 C.ar    
  11 C11            7.0447     0.4696     0.1806 C.ar    
  12 C12            6.8852     1.8497     0.0504 C.ar    
  13 C13            5.6082     2.3892    -0.1087 C.ar    
  14 C14            4.5094     1.5571    -0.1420 C.ar    
  15 S15            7.3631     4.7231     3.4107 S.o2    
  16 N16            7.3205     3.7007     2.1105 N.am    
  17 C17            8.2434     3.7142     1.1794 C.2     
  18 N18            9.3291     4.5423     1.1508 N.pl3   
  19 C19            9.5830     5.5934     2.1395 C.3     
  20 C20            9.1304     5.1438     3.5315 C.3     
  21 C21            8.0681     2.7396     0.0816 C.2     
  22 C22            9.0203     2.6699    -0.9121 C.2     
  23 C23           10.1270     3.5281    -0.8539 C.2     
  24 C24           10.2566     4.4162     0.1465 C.2     
  25 O25            6.6026     5.8521     3.0029 O.2     
  26 O26            6.9596     3.9194     4.5109 O.2     
  27 H27            3.1384    -0.1676     4.4319 H       
  28 H28            4.2266     0.3812     2.2937 H       
  29 H29            1.6068    -2.3198     0.2677 H       
  30 H30            0.5184    -2.8677     2.4061 H       
  31 H31            0.4113    -1.2910     4.9541 H       
  32 H32            6.0635    -1.4243     0.2523 H       
  33 H33            8.0316     0.0486     0.3042 H       
  34 H34            5.4811     3.4569    -0.2094 H       
  35 H35            3.5211     1.9736    -0.2692 H       
  36 H36           10.6500     5.8150     2.1626 H       
  37 H37            9.0358     6.4927     1.8566 H       
  38 H38            9.2714     5.9535     4.2475 H       
  39 H39            9.7003     4.2682     3.8425 H       
  40 H40            8.9156     1.9645    -1.7231 H       
  41 H41           10.8846     3.4748    -1.6218 H       
  42 H42           11.1258     5.0571     0.1607 H       
@<TRIPOS>BOND
   1    1    2 ar
   2    1    6 ar
   3    1    7 1
   4    2    3 ar
   5    2   27 1
   6    3    4 ar
   7    3   28 1
   8    4    5 ar
   9    4    8 1
  10    5    6 ar
  11    5   29 1
  12    6   30 1
  13    7   31 1
  14    8    9 1
  15    9   10 ar
  16    9   14 ar
  17   10   11 ar
  18   10   32 1
  19   11   12 ar
  20   11   33 1
  21   12   13 ar
  22   12   21 1
  23   13   14 ar
  24   13   34 1
  25   14   35 1
  26   15   16 am
  27   15   20 1
  28   15   25 2
  29   15   26 2
  30   16   17 2
  31   17   18 1
  32   17   21 1
  33   18   19 1
  34   18   24 1
  35   19   20 1
  36   19   36 1
  37   19   37 1
  38   20   38 1
  39   20   39 1
  40   21   22 2
  41   22   23 1
  42   22   40 1
  43   23   24 2
  44   23   41 1
  45   24   42 1

#	End of record

