#	Name: ASD00431017
#	Creating user name:	WinNT
#	Creation time:	15. 06. 2019 18:35

#	Modifying user name:	WinNT
#	Modification time:	15. 06. 2019 18:35

#	Program:	/corina/corina34_cracker 3.40 0067  02.08.2006

@<TRIPOS>MOLECULE
ASD00431017
  27   28    0    0    0
SMALL
NO_CHARGES


@<TRIPOS>ATOM
   1 C1            -0.0166     1.3760     0.0096 C.ar    
   2 C2             0.0021    -0.0041     0.0020 C.ar    
   3 C3             1.2078    -0.6818    -0.0131 C.ar    
   4 C4             1.2218    -2.1888    -0.0219 C.3     
   5 N5             1.2134    -2.6705    -1.4096 N.3     
   6 C6             1.1820     2.0864     0.0020 C.ar    
   7 C7             2.3936     1.3986    -0.0133 C.ar    
   8 C8             2.4006     0.0184    -0.0208 C.ar    
   9 C9             1.1681     3.5703     0.0096 C.ar    
  10 C10            2.3667     4.2807     0.0020 C.ar    
  11 C11            2.3480     5.6608     0.0091 C.ar    
  12 C12            1.1423     6.3386     0.0239 C.ar    
  13 C13           -0.0505     5.6383     0.0320 C.ar    
  14 C14           -0.0435     4.2582     0.0186 C.ar    
  15 H15           -0.9586     1.9042     0.0169 H       
  16 H16           -0.9264    -0.5558     0.0083 H       
  17 H17            2.1199    -2.5467     0.4816 H       
  18 H18            0.3401    -2.5633     0.4981 H       
  19 H19            1.2225    -3.6789    -1.4424 H       
  20 H20            0.4238    -2.2994    -1.9164 H       
  21 H21            3.3255     1.9443    -0.0193 H       
  22 H22            3.3392    -0.5158    -0.0322 H       
  23 H23            3.3087     3.7525    -0.0092 H       
  24 H24            3.2765     6.2125     0.0036 H       
  25 H25            1.1323     7.4185     0.0295 H       
  26 H26           -0.9891     6.1725     0.0442 H       
  27 H27           -0.9755     3.7124     0.0249 H       
@<TRIPOS>BOND
   1    1    2 ar
   2    1    6 ar
   3    1   15 1
   4    2    3 ar
   5    2   16 1
   6    3    4 1
   7    3    8 ar
   8    4    5 1
   9    4   17 1
  10    4   18 1
  11    5   19 1
  12    5   20 1
  13    6    7 ar
  14    6    9 1
  15    7    8 ar
  16    7   21 1
  17    8   22 1
  18    9   10 ar
  19    9   14 ar
  20   10   11 ar
  21   10   23 1
  22   11   12 ar
  23   11   24 1
  24   12   13 ar
  25   12   25 1
  26   13   14 ar
  27   13   26 1
  28   14   27 1

#	End of record

