#	Name: ASD03731351
#	Creating user name:	WinNT
#	Creation time:	15. 06. 2019 20:45

#	Modifying user name:	WinNT
#	Modification time:	15. 06. 2019 20:45

#	Program:	/corina/corina34_cracker 3.40 0067  02.08.2006

@<TRIPOS>MOLECULE
ASD03731351
  60   66    0    0    0
SMALL
NO_CHARGES


@<TRIPOS>ATOM
   1 C1            -0.6755     1.5528    -1.0817 C.2     
   2 C2            -0.5603     0.0812    -1.1582 C.ar    
   3 C3            -0.0289    -0.5220    -2.2994 C.ar    
   4 C4             0.0757    -1.8961    -2.3643 C.ar    
   5 C5            -0.3452    -2.6760    -1.3018 C.ar    
   6 C6            -0.8729    -2.0845    -0.1677 C.ar    
   7 C7            -0.9773    -0.7112    -0.0873 C.ar    
   8 O8            -0.3069     2.2406    -2.0138 O.2     
   9 N9            -1.1942     2.1318     0.0193 N.am    
  10 C10           -0.2287    -4.1764    -1.3802 C.3     
  11 O11            4.4414    -1.2326     3.2257 O.3     
  12 C12            5.6489    -1.2543     4.0097 C.3     
  13 O13            5.7205    -2.6096     4.4905 O.3     
  14 C14            5.0553    -3.3617     3.5649 C.ar    
  15 C15            4.2682    -2.5145     2.7882 C.ar    
  16 C16            5.0586    -4.7227     3.3175 C.ar    
  17 C17            4.2777    -5.2556     2.2964 C.ar    
  18 C18            3.4892    -4.4003     1.5326 C.ar    
  19 C19            3.4885    -3.0421     1.7727 C.ar    
  20 O20            4.1501    -6.5483     1.8805 O.3     
  21 C21            2.7521    -5.2643     0.5447 C.3     
  22 C22            2.9441    -6.6807     1.1036 C.3     
  23 N23            1.0733    -4.5934    -0.8539 N.am    
  24 C24            1.3002    -4.8958     0.4400 C.2     
  25 C25            3.2971    -5.1331    -0.8466 C.ar    
  26 C26            4.5412    -5.3288    -1.4034 C.ar    
  27 C27            4.7349    -5.1210    -2.7574 C.ar    
  28 C28            3.6764    -4.7157    -3.5499 C.ar    
  29 C29            2.4285    -4.5174    -2.9967 C.ar    
  30 C30            2.2243    -4.7246    -1.6347 C.ar    
  31 O31            0.4903    -4.8748     1.3425 O.2     
  32 C32           -1.2148     3.5213     0.1322 C.ar    
  33 C33           -2.3483     4.2445    -0.2682 C.ar    
  34 C34           -2.3567     5.6364    -0.1495 C.ar    
  35 C35           -1.2549     6.2906     0.3587 C.ar    
  36 C36           -0.1366     5.5752     0.7535 C.ar    
  37 C37           -0.1148     4.1968     0.6473 C.ar    
  38 F38            0.9783     3.5066     1.0397 F       
  39 C39           -3.4899     3.5598    -0.7959 C.1     
  40 N40           -4.3956     3.0167    -1.2145 N.1     
  41 H41            0.2994     0.0856    -3.1297 H       
  42 H42            0.4868    -2.3640    -3.2466 H       
  43 H43           -1.1996    -2.6990     0.6581 H       
  44 H44           -1.3850    -0.2505     0.8004 H       
  45 H45           -1.5531     1.5818     0.7331 H       
  46 H46           -1.0226    -4.6338    -0.7897 H       
  47 H47           -0.3194    -4.4941    -2.4189 H       
  48 H48            6.5135    -1.0224     3.3878 H       
  49 H49            5.5769    -0.5556     4.8432 H       
  50 H50            5.6712    -5.3761     3.9210 H       
  51 H51            2.8779    -2.3885     1.1675 H       
  52 H52            3.0806    -7.4002     0.2964 H       
  53 H53            2.1041    -6.9637     1.7380 H       
  54 H54            5.3665    -5.6451    -0.7826 H       
  55 H55            5.7104    -5.2752    -3.1946 H       
  56 H56            3.8276    -4.5534    -4.6069 H       
  57 H57            1.6070    -4.2004    -3.6219 H       
  58 H58           -3.2257     6.1996    -0.4561 H       
  59 H59           -1.2636     7.3668     0.4491 H       
  60 H60            0.7218     6.0967     1.1505 H       
@<TRIPOS>BOND
   1    1    2 1
   2    1    8 2
   3    1    9 am
   4    2    3 ar
   5    2    7 ar
   6    3    4 ar
   7    3   41 1
   8    4    5 ar
   9    4   42 1
  10    5    6 ar
  11    5   10 1
  12    6    7 ar
  13    6   43 1
  14    7   44 1
  15    9   32 1
  16    9   45 1
  17   10   23 1
  18   10   46 1
  19   10   47 1
  20   11   12 1
  21   11   15 1
  22   12   13 1
  23   12   48 1
  24   12   49 1
  25   13   14 1
  26   14   15 ar
  27   14   16 ar
  28   15   19 ar
  29   16   17 ar
  30   16   50 1
  31   17   18 ar
  32   17   20 1
  33   18   19 ar
  34   18   21 1
  35   19   51 1
  36   20   22 1
  37   21   22 1
  38   21   24 1
  39   21   25 1
  40   22   52 1
  41   22   53 1
  42   23   24 am
  43   23   30 1
  44   24   31 2
  45   25   26 ar
  46   25   30 ar
  47   26   27 ar
  48   26   54 1
  49   27   28 ar
  50   27   55 1
  51   28   29 ar
  52   28   56 1
  53   29   30 ar
  54   29   57 1
  55   32   33 ar
  56   32   37 ar
  57   33   34 ar
  58   33   39 1
  59   34   35 ar
  60   34   58 1
  61   35   36 ar
  62   35   59 1
  63   36   37 ar
  64   36   60 1
  65   37   38 1
  66   39   40 3

#	End of record

