#	Name: ASD03430479
#	Creating user name:	WinNT
#	Creation time:	15. 06. 2019 20:41

#	Modifying user name:	WinNT
#	Modification time:	15. 06. 2019 20:41

#	Program:	/corina/corina34_cracker 3.40 0067  02.08.2006

@<TRIPOS>MOLECULE
ASD03430479
  49   53    0    0    0
SMALL
NO_CHARGES


@<TRIPOS>ATOM
   1 N1            -0.0161     1.3395     0.0094 N.am    
   2 C2             0.0021    -0.0041     0.0020 C.2     
   3 C3             1.4548    -0.4298    -0.0141 C.3     
   4 C4             2.2197     0.8737    -0.0144 C.ar    
   5 C5             3.5641     1.1705    -0.0263 C.ar    
   6 C6             3.9795     2.4906    -0.0239 C.ar    
   7 C7             3.0415     3.5068    -0.0095 C.ar    
   8 C8             1.6940     3.2122     0.0024 C.ar    
   9 C9             1.2680     1.8853     0.0001 C.ar    
  10 O10           -0.9637    -0.7377     0.0076 O.2     
  11 C11           -1.2434     2.1395     0.0197 C.3     
  12 O12           -1.9334     1.1726     2.1336 O.3     
  13 C13           -1.6633     2.4106     1.4658 C.3     
  14 C14           -2.9622     3.2448     1.4863 C.3     
  15 C15           -3.7433     2.6094     2.6687 C.3     
  16 C16           -3.3087     1.1273     2.5456 C.3     
  17 O17            2.6873    -3.4327     4.5950 O.3     
  18 C18            2.8305    -4.8469     4.4341 C.3     
  19 O19            3.6735    -5.0949     3.3026 O.3     
  20 C20            3.0905    -4.6709     2.0667 C.3     
  21 C21            2.5674    -3.2647     2.2188 C.ar    
  22 C22            2.3894    -2.7146     3.4794 C.ar    
  23 C23            2.2655    -2.5228     1.0918 C.ar    
  24 C24            1.7830    -1.2343     1.2172 C.ar    
  25 C25            1.6008    -0.6805     2.4763 C.ar    
  26 C26            1.9043    -1.4214     3.6078 C.ar    
  27 O27            1.1258     0.5867     2.5999 O.3     
  28 O28            1.7436    -1.1801    -1.1956 O.3     
  29 H29            4.2935     0.3741    -0.0372 H       
  30 H30            5.0333     2.7266    -0.0329 H       
  31 H31            3.3659     4.5370    -0.0072 H       
  32 H32            0.9677     4.0114     0.0136 H       
  33 H33           -1.0644     3.0860    -0.4902 H       
  34 H34           -2.0364     1.5949    -0.4929 H       
  35 H35           -0.8710     2.9472     1.9877 H       
  36 H36           -2.7459     4.2947     1.6839 H       
  37 H37           -3.5118     3.1300     0.5520 H       
  38 H38           -3.4270     3.0337     3.6216 H       
  39 H39           -4.8193     2.7160     2.5312 H       
  40 H40           -3.9120     0.6172     1.7946 H       
  41 H41           -3.3987     0.6253     3.5090 H       
  42 H42            3.2843    -5.2729     5.3289 H       
  43 H43            1.8520    -5.2971     4.2672 H       
  44 H44            3.8455    -4.6954     1.2810 H       
  45 H45            2.2694    -5.3379     1.8040 H       
  46 H46            2.4066    -2.9519     0.1108 H       
  47 H47            1.7632    -0.9921     4.5888 H       
  48 H48            0.1618     0.6420     2.6531 H       
  49 H49            1.2345    -1.9982    -1.2762 H       
@<TRIPOS>BOND
   1    1    2 am
   2    1    9 1
   3    1   11 1
   4    2    3 1
   5    2   10 2
   6    3    4 1
   7    3   24 1
   8    3   28 1
   9    4    5 ar
  10    4    9 ar
  11    5    6 ar
  12    5   29 1
  13    6    7 ar
  14    6   30 1
  15    7    8 ar
  16    7   31 1
  17    8    9 ar
  18    8   32 1
  19   11   13 1
  20   11   33 1
  21   11   34 1
  22   12   13 1
  23   12   16 1
  24   13   14 1
  25   13   35 1
  26   14   15 1
  27   14   36 1
  28   14   37 1
  29   15   16 1
  30   15   38 1
  31   15   39 1
  32   16   40 1
  33   16   41 1
  34   17   18 1
  35   17   22 1
  36   18   19 1
  37   18   42 1
  38   18   43 1
  39   19   20 1
  40   20   21 1
  41   20   44 1
  42   20   45 1
  43   21   22 ar
  44   21   23 ar
  45   22   26 ar
  46   23   24 ar
  47   23   46 1
  48   24   25 ar
  49   25   26 ar
  50   25   27 1
  51   26   47 1
  52   27   48 1
  53   28   49 1

#	End of record

