#	Name: ASD01916485
#	Creating user name:	WinNT
#	Creation time:	15. 06. 2019 20:07

#	Modifying user name:	WinNT
#	Modification time:	15. 06. 2019 20:07

#	Program:	/corina/corina34_cracker 3.40 0067  02.08.2006

@<TRIPOS>MOLECULE
ASD01916485
  43   47    0    0    0
SMALL
NO_CHARGES


@<TRIPOS>ATOM
   1 C1            -0.0171     1.4098     0.0098 C.ar    
   2 C2             0.0021    -0.0041     0.0020 C.ar    
   3 C3            -1.1922    -0.7253     0.0057 C.ar    
   4 C4            -2.3850    -0.0637     0.0192 C.ar    
   5 C5            -2.4221     1.3389     0.0292 C.ar    
   6 C6            -1.2407     2.0766     0.0193 C.ar    
   7 N7             1.1596     2.0858     0.0022 N.2     
   8 C8             2.3019     1.4707    -0.0084 C.2     
   9 N9             2.4103     0.1085    -0.0086 N.am    
  10 C10            1.3111    -0.6734    -0.0088 C.2     
  11 C11           -3.6835     2.0167     0.0439 C.1     
  12 C12           -4.7176     2.5724     0.0559 C.1     
  13 C13           -5.9789     3.2502     0.0706 C.ar    
  14 N14           -6.0139     4.5793     0.0801 N.ar    
  15 C15           -7.1536     5.2390     0.0937 C.ar    
  16 C16           -8.3634     4.5684     0.0991 C.ar    
  17 C17           -8.3740     3.1801     0.0896 C.ar    
  18 C18           -7.1642     2.5101     0.0692 C.ar    
  19 O19            1.3996    -1.8876    -0.0181 O.2     
  20 C20            3.7293     2.0395    -0.0244 C.3     
  21 C21            4.2787     1.7066     1.3992 C.3     
  22 C22            4.3542     0.1607     1.4131 C.3     
  23 C23            3.8547    -0.2541    -0.0065 C.3     
  24 O24            5.7003    -0.2733     1.6173 O.3     
  25 C25            6.0428    -0.4794     2.9893 C.3     
  26 C26            4.4398     0.9207    -0.8712 C.3     
  27 H27           -1.1724    -1.8051    -0.0026 H       
  28 H28           -3.3083    -0.6240     0.0219 H       
  29 H29           -1.2726     3.1561     0.0273 H       
  30 H30           -7.1434     6.3189     0.1010 H       
  31 H31           -9.2918     5.1201     0.1110 H       
  32 H32           -9.3065     2.6353     0.0936 H       
  33 H33           -7.1359     1.4305     0.0609 H       
  34 H34            3.8389     3.0712    -0.3587 H       
  35 H35            5.2693     2.1396     1.5382 H       
  36 H36            3.5926     2.0634     2.1674 H       
  37 H37            3.6992    -0.2470     2.1831 H       
  38 H38            4.0948    -1.2696    -0.3215 H       
  39 H39            5.9189     0.4538     3.5388 H       
  40 H40            5.3908    -1.2416     3.4160 H       
  41 H41            7.0798    -0.8075     3.0596 H       
  42 H42            4.0880     0.8933    -1.9025 H       
  43 H43            5.5265     0.9804    -0.8105 H       
@<TRIPOS>BOND
   1    1    2 ar
   2    1    7 1
   3    1    6 ar
   4    2    3 ar
   5    2   10 1
   6    3    4 ar
   7    3   27 1
   8    4    5 ar
   9    4   28 1
  10    5    6 ar
  11    5   11 1
  12    6   29 1
  13    7    8 2
  14    8    9 1
  15    8   20 1
  16    9   10 am
  17    9   23 1
  18   10   19 2
  19   11   12 3
  20   12   13 1
  21   13   14 ar
  22   13   18 ar
  23   14   15 ar
  24   15   16 ar
  25   15   30 1
  26   16   17 ar
  27   16   31 1
  28   17   18 ar
  29   17   32 1
  30   18   33 1
  31   20   21 1
  32   20   26 1
  33   20   34 1
  34   21   22 1
  35   21   35 1
  36   21   36 1
  37   22   23 1
  38   22   24 1
  39   22   37 1
  40   23   26 1
  41   23   38 1
  42   24   25 1
  43   25   39 1
  44   25   40 1
  45   25   41 1
  46   26   42 1
  47   26   43 1

#	End of record

