#	Name: ASD08070204
#	Creating user name:	WinNT
#	Creation time:	15. 06. 2019 21:14

#	Modifying user name:	WinNT
#	Modification time:	15. 06. 2019 21:14

#	Program:	/corina/corina34_cracker 3.40 0067  02.08.2006

@<TRIPOS>MOLECULE
ASD08070204
  34   35    0    0    0
SMALL
NO_CHARGES


@<TRIPOS>ATOM
   1 N1            -0.0158     1.3150     0.0093 N.ar    
   2 C2             0.0021    -0.0041     0.0020 C.ar    
   3 C3             1.1975    -0.7022    -0.0127 C.ar    
   4 C4             2.3912    -0.0010    -0.0203 C.ar    
   5 C5             2.3387     1.3981    -0.0128 C.ar    
   6 C6             1.0927     2.0259     0.0025 C.ar    
   7 N7             3.5191     3.5432    -0.0125 N.am    
   8 C8             3.5827     2.1969    -0.0199 C.2     
   9 O9             4.6628     1.6396    -0.0324 O.2     
  10 C10            4.7518     4.3348    -0.0196 C.3     
  11 C11            4.4691     5.7135    -0.6197 C.3     
  12 C12            5.2618     4.4973     1.4137 C.3     
  13 C13            6.5492     5.3240     1.4064 C.3     
  14 C14            6.2665     6.7027     0.8062 C.3     
  15 C15            5.7566     6.5402    -0.6271 C.3     
  16 C16            3.9592     5.5509    -2.0531 C.3     
  17 Br17           1.1998    -2.5932    -0.0216 Br      
  18 H18           -0.9309    -0.5481     0.0080 H       
  19 H19            3.3384    -0.5198    -0.0314 H       
  20 H20            1.0369     3.1044     0.0085 H       
  21 H21            2.6571     3.9880    -0.0025 H       
  22 H22            5.5070     3.8257    -0.6184 H       
  23 H23            3.7139     6.2225    -0.0209 H       
  24 H24            4.5065     5.0063     2.0126 H       
  25 H25            5.4631     3.5151     1.8413 H       
  26 H26            6.9125     5.4397     2.4275 H       
  27 H27            7.3044     4.8149     0.8075 H       
  28 H28            5.5113     7.2117     1.4050 H       
  29 H29            7.1837     7.2916     0.8010 H       
  30 H30            6.5118     6.0311    -1.2259 H       
  31 H31            5.5552     7.5224    -1.0547 H       
  32 H32            3.0420     4.9620    -2.0478 H       
  33 H33            3.7578     6.5332    -2.4806 H       
  34 H34            4.7144     5.0419    -2.6519 H       
@<TRIPOS>BOND
   1    1    2 ar
   2    1    6 ar
   3    2    3 ar
   4    2   18 1
   5    3    4 ar
   6    3   17 1
   7    4    5 ar
   8    4   19 1
   9    5    6 ar
  10    5    8 1
  11    6   20 1
  12    7    8 am
  13    7   10 1
  14    7   21 1
  15    8    9 2
  16   10   11 1
  17   10   12 1
  18   10   22 1
  19   11   16 1
  20   11   15 1
  21   11   23 1
  22   12   13 1
  23   12   24 1
  24   12   25 1
  25   13   14 1
  26   13   26 1
  27   13   27 1
  28   14   15 1
  29   14   28 1
  30   14   29 1
  31   15   30 1
  32   15   31 1
  33   16   32 1
  34   16   33 1
  35   16   34 1

#	End of record

