#	Name: ASD06800002
#	Creating user name:	WinNT
#	Creation time:	15. 06. 2019 21:08

#	Modifying user name:	WinNT
#	Modification time:	15. 06. 2019 21:08

#	Program:	/corina/corina34_cracker 3.40 0067  02.08.2006

@<TRIPOS>MOLECULE
ASD06800002
  43   45    0    0    0
SMALL
NO_CHARGES


@<TRIPOS>ATOM
   1 C1            -0.2321     1.3262    -0.6798 C.ar    
   2 N2            -0.1961     0.0020    -0.6707 N.ar    
   3 C3             0.7438    -0.6571    -1.3314 C.ar    
   4 C4             1.6969     0.0520    -2.0377 C.ar    
   5 C5             1.6326     1.4450    -2.0282 C.ar    
   6 N6             0.6635     2.0411    -1.3449 N.ar    
   7 C7            -2.4036     5.4620     0.2281 C.ar    
   8 C8            -1.1903     6.1400     0.3174 C.ar    
   9 C9             0.0020     5.4313     0.3068 C.ar    
  10 C10           -0.0128     4.0539     0.2079 C.ar    
  11 C11           -1.2216     3.3750     0.1187 C.ar    
  12 C12           -2.4173     4.0803     0.1343 C.ar    
  13 C13           -1.8352     8.4108    -0.3793 C.2     
  14 N14           -1.5752     9.6259     0.0214 N.2     
  15 C15           -0.7484     9.5772     1.0763 C.2     
  16 C16           -0.4847     8.2829     1.3409 C.2     
  17 N17           -1.1740     7.5413     0.4176 N.pl3   
  18 N18           -1.2341     1.9794     0.0186 N.pl3   
  19 O19            2.5470     2.1797    -2.7068 O.3     
  20 C20            2.4112     3.6009    -2.6465 C.3     
  21 C21            0.7740    -2.1637    -1.3126 C.3     
  22 O22           -3.5730     6.1551     0.2388 O.3     
  23 C23           -0.2083    10.7632     1.8330 C.3     
  24 C24           -4.7790     5.3944     0.1439 C.3     
  25 H25            2.4742    -0.4611    -2.5845 H       
  26 H26            0.9428     5.9571     0.3760 H       
  27 H27            0.9166     3.5039     0.1991 H       
  28 H28           -3.3571     3.5526     0.0649 H       
  29 H29           -2.4757     8.1443    -1.2071 H       
  30 H30            0.1485     7.9029     2.1290 H       
  31 H31           -1.9445     1.4694     0.4383 H       
  32 H32            3.2047     4.0668    -3.2309 H       
  33 H33            1.4424     3.8909    -3.0532 H       
  34 H34            2.4830     3.9291    -1.6096 H       
  35 H35            0.1800    -2.5493    -2.1412 H       
  36 H36            1.8034    -2.5078    -1.4125 H       
  37 H37            0.3604    -2.5237    -0.3706 H       
  38 H38           -0.8870    11.0138     2.6483 H       
  39 H39            0.7731    10.5187     2.2394 H       
  40 H40           -0.1204    11.6151     1.1587 H       
  41 H41           -5.6358     6.0677     0.1636 H       
  42 H42           -4.7808     4.8312    -0.7894 H       
  43 H43           -4.8401     4.7038     0.9850 H       
@<TRIPOS>BOND
   1    1    2 ar
   2    1    6 ar
   3    1   18 1
   4    2    3 ar
   5    3    4 ar
   6    3   21 1
   7    4    5 ar
   8    4   25 1
   9    5    6 ar
  10    5   19 1
  11    7    8 ar
  12    7   22 1
  13    7   12 ar
  14    8    9 ar
  15    8   17 1
  16    9   10 ar
  17    9   26 1
  18   10   11 ar
  19   10   27 1
  20   11   12 ar
  21   11   18 1
  22   12   28 1
  23   13   14 2
  24   13   17 1
  25   13   29 1
  26   14   15 1
  27   15   16 2
  28   15   23 1
  29   16   17 1
  30   16   30 1
  31   18   31 1
  32   19   20 1
  33   20   32 1
  34   20   33 1
  35   20   34 1
  36   21   35 1
  37   21   36 1
  38   21   37 1
  39   22   24 1
  40   23   38 1
  41   23   39 1
  42   23   40 1
  43   24   41 1
  44   24   42 1
  45   24   43 1

#	End of record

