#	Name: ASD06170213
#	Creating user name:	WinNT
#	Creation time:	15. 06. 2019 21:05

#	Modifying user name:	WinNT
#	Modification time:	15. 06. 2019 21:05

#	Program:	/corina/corina34_cracker 3.40 0067  02.08.2006

@<TRIPOS>MOLECULE
ASD06170213
  68   72    0    0    0
SMALL
NO_CHARGES


@<TRIPOS>ATOM
   1 C1             0.0198     1.2916     0.3518 C.2     
   2 C2            -0.1619     0.0390    -0.2805 C.2     
   3 C3             0.9368    -0.5592    -0.9228 C.2     
   4 C4             2.1740     0.1112    -0.9117 C.2     
   5 C5             2.2890     1.3061    -0.2919 C.2     
   6 N6             1.2273     1.8857     0.3297 N.am    
   7 C7            -1.4701    -0.6226    -0.2658 C.2     
   8 O8            -1.6435    -1.6423    -0.9075 O.2     
   9 N9            -2.4806    -0.1019     0.4581 N.am    
  10 C10            1.3938     3.1256     0.9593 C.ar    
  11 C11            0.7549     4.2519     0.4579 C.ar    
  12 C12            0.9206     5.4731     1.0814 C.ar    
  13 C13            1.7222     5.5749     2.2035 C.ar    
  14 C14            2.3602     4.4552     2.7051 C.ar    
  15 C15            2.1935     3.2300     2.0897 C.ar    
  16 O16           -0.9174     1.8345     0.9115 O.2     
  17 N17            0.8048    -1.7764    -1.5494 N.pl3   
  18 C18            1.9215    -2.3282    -2.3206 C.3     
  19 C19            1.5156    -3.6807    -2.9096 C.3     
  20 O20            0.4606    -3.4913    -3.8546 O.3     
  21 C21            0.0048    -4.6995    -4.4668 C.3     
  22 C22           -3.6785    -0.8127     0.6007 C.ar    
  23 C23           -4.8796    -0.1290     0.7389 C.ar    
  24 C24           -6.0616    -0.8316     0.8796 C.ar    
  25 C25           -6.0471    -2.2214     0.8828 C.ar    
  26 C26           -4.8474    -2.9027     0.7453 C.ar    
  27 C27           -3.6665    -2.2010     0.5984 C.ar    
  28 O28           -7.2098    -2.9131     1.0212 O.3     
  29 N29           -9.5337    -3.4448    -2.3442 N.ar    
  30 C30           -8.3549    -2.8755    -2.4391 C.ar    
  31 C31           -7.5447    -2.6796    -1.3282 C.ar    
  32 C32           -7.9794    -3.0910    -0.0803 C.ar    
  33 C33           -9.2504    -3.7029     0.0102 C.ar    
  34 C34           -9.7586    -4.1455     1.2402 C.ar    
  35 C35          -10.9861    -4.7305     1.2949 C.ar    
  36 C36          -11.7508    -4.8976     0.1367 C.ar    
  37 C37          -11.2796    -4.4743    -1.0854 C.ar    
  38 C38          -10.0167    -3.8668    -1.1695 C.ar    
  39 O39          -12.9729    -5.4850     0.2182 O.3     
  40 C40          -13.4065    -5.9034     1.5139 C.3     
  41 F41           -7.2304    -0.1677     1.0145 F       
  42 H42            3.0316    -0.3295    -1.3984 H       
  43 H43            3.2436     1.8112    -0.2896 H       
  44 H44           -2.3780     0.7654     0.8804 H       
  45 H45            0.1292     4.1732    -0.4189 H       
  46 H46            0.4240     6.3495     0.6919 H       
  47 H47            1.8506     6.5311     2.6891 H       
  48 H48            2.9862     4.5381     3.5812 H       
  49 H49            2.6882     2.3550     2.4847 H       
  50 H50           -0.0277    -2.2695    -1.4808 H       
  51 H51            2.1792    -1.6429    -3.1281 H       
  52 H52            2.7840    -2.4605    -1.6673 H       
  53 H53            2.3734    -4.1320    -3.4082 H       
  54 H54            1.1734    -4.3373    -2.1097 H       
  55 H55           -0.7957    -4.4708    -5.1704 H       
  56 H56            0.8312    -5.1720    -4.9977 H       
  57 H57           -0.3687    -5.3773    -3.6992 H       
  58 H58           -4.8900     0.9509     0.7366 H       
  59 H59           -4.8367    -3.9826     0.7485 H       
  60 H60           -2.7331    -2.7326     0.4861 H       
  61 H61           -8.0053    -2.5504    -3.4079 H       
  62 H62           -6.5790    -2.2086    -1.4377 H       
  63 H63           -9.1769    -4.0226     2.1419 H       
  64 H64          -11.3738    -5.0699     2.2440 H       
  65 H65          -11.8782    -4.6081    -1.9743 H       
  66 H66          -12.7033    -6.6337     1.9142 H       
  67 H67          -13.4515    -5.0404     2.1782 H       
  68 H68          -14.3956    -6.3552     1.4377 H       
@<TRIPOS>BOND
   1    1    2 1
   2    1    6 am
   3    1   16 2
   4    2    3 2
   5    2    7 1
   6    3    4 1
   7    3   17 1
   8    4    5 2
   9    4   42 1
  10    5    6 1
  11    5   43 1
  12    6   10 1
  13    7    8 2
  14    7    9 am
  15    9   22 1
  16    9   44 1
  17   10   11 ar
  18   10   15 ar
  19   11   12 ar
  20   11   45 1
  21   12   13 ar
  22   12   46 1
  23   13   14 ar
  24   13   47 1
  25   14   15 ar
  26   14   48 1
  27   15   49 1
  28   17   18 1
  29   17   50 1
  30   18   19 1
  31   18   51 1
  32   18   52 1
  33   19   20 1
  34   19   53 1
  35   19   54 1
  36   20   21 1
  37   21   55 1
  38   21   56 1
  39   21   57 1
  40   22   23 ar
  41   22   27 ar
  42   23   24 ar
  43   23   58 1
  44   24   25 ar
  45   24   41 1
  46   25   26 ar
  47   25   28 1
  48   26   27 ar
  49   26   59 1
  50   27   60 1
  51   28   32 1
  52   29   30 ar
  53   29   38 ar
  54   30   31 ar
  55   30   61 1
  56   31   32 ar
  57   31   62 1
  58   32   33 ar
  59   33   34 ar
  60   33   38 ar
  61   34   35 ar
  62   34   63 1
  63   35   36 ar
  64   35   64 1
  65   36   37 ar
  66   36   39 1
  67   37   38 ar
  68   37   65 1
  69   39   40 1
  70   40   66 1
  71   40   67 1
  72   40   68 1

#	End of record

