#	Name: ASD05720129
#	Creating user name:	WinNT
#	Creation time:	15. 06. 2019 21:01

#	Modifying user name:	WinNT
#	Modification time:	15. 06. 2019 21:01

#	Program:	/corina/corina34_cracker 3.40 0067  02.08.2006

@<TRIPOS>MOLECULE
ASD05720129
  52   57    0    0    0
SMALL
NO_CHARGES


@<TRIPOS>ATOM
   1 O1             0.1592     1.4944     0.5675 O.3     
   2 C2             0.0290     0.1779     0.3699 C.2     
   3 N3             1.1645    -0.4295    -0.0009 N.am    
   4 C4             2.2376     0.5736    -0.0780 C.3     
   5 C5             1.5384     1.8897     0.3135 C.3     
   6 O6            -1.0227    -0.4132     0.5137 O.2     
   7 C7             2.6579    -3.5976    -0.7333 C.2     
   8 N8             2.5045    -2.2951    -0.4754 N.2     
   9 C9             1.3053    -1.7849    -0.2680 C.2     
  10 C10            0.1670    -2.6153    -0.3170 C.2     
  11 C11            0.3186    -3.9336    -0.5777 C.2     
  12 N12            1.5738    -4.4330    -0.7883 N.pl3   
  13 N13            2.0376    -5.7222    -1.0732 N.2     
  14 C14            3.3425    -5.6965    -1.1905 C.2     
  15 C15            3.7884    -4.3842    -0.9918 C.2     
  16 C16            5.1915    -3.9158    -1.0435 C.ar    
  17 C17            6.1488    -4.4848    -0.2020 C.ar    
  18 C18            7.4559    -4.0476    -0.2509 C.ar    
  19 C19            7.8204    -3.0357    -1.1426 C.ar    
  20 C20            6.8628    -2.4684    -1.9826 C.ar    
  21 C21            5.5587    -2.9088    -1.9380 C.ar    
  22 N22           11.0600    -1.4992    -1.7092 N.pl3   
  23 N23            9.6893    -1.6233    -1.9886 N.2     
  24 C24            9.2254    -2.5647    -1.1955 C.2     
  25 N25           10.2333    -3.0275    -0.4433 N.2     
  26 C26           11.3364    -2.3947    -0.7444 C.2     
  27 F27            8.3833    -4.5972     0.5634 F       
  28 C28            2.7898     0.6615    -1.5022 C.3     
  29 C29            3.6390     1.9349    -1.6607 C.3     
  30 C30            5.0636     1.4716    -2.0289 C.3     
  31 C31            4.8574     0.0691    -2.6532 C.3     
  32 C32            3.7280    -0.5312    -1.7797 C.3     
  33 H33            3.0334     0.3379     0.6284 H       
  34 H34            1.5857     2.6062    -0.5065 H       
  35 H35            1.9880     2.3080     1.2141 H       
  36 H36           -0.8165    -2.2026    -0.1477 H       
  37 H37           -0.5422    -4.5847    -0.6187 H       
  38 H38            3.9707    -6.5476    -1.4082 H       
  39 H39            5.8659    -5.2667     0.4873 H       
  40 H40            7.1450    -1.6862    -2.6718 H       
  41 H41            4.8188    -2.4718    -2.5922 H       
  42 H42           11.6855    -0.8902    -2.1320 H       
  43 H43           12.3043    -2.5621    -0.2954 H       
  44 H44            1.9700     0.6676    -2.2205 H       
  45 H45            3.2318     2.5585    -2.4565 H       
  46 H46            3.6576     2.4903    -0.7230 H       
  47 H47            5.5098     2.1507    -2.7554 H       
  48 H48            5.6855     1.4041    -1.1362 H       
  49 H49            4.5394     0.1519    -3.6925 H       
  50 H50            5.7664    -0.5270    -2.5726 H       
  51 H51            4.1342    -0.9222    -0.8468 H       
  52 H52            3.1996    -1.3137    -2.3243 H       
@<TRIPOS>BOND
   1    1    2 1
   2    1    5 1
   3    2    3 am
   4    2    6 2
   5    3    4 1
   6    3    9 1
   7    4    5 1
   8    4   28 1
   9    4   33 1
  10    5   34 1
  11    5   35 1
  12    7    8 1
  13    7   12 1
  14    7   15 2
  15    8    9 2
  16    9   10 1
  17   10   11 2
  18   10   36 1
  19   11   12 1
  20   11   37 1
  21   12   13 1
  22   13   14 2
  23   14   15 1
  24   14   38 1
  25   15   16 1
  26   16   17 ar
  27   16   21 ar
  28   17   18 ar
  29   17   39 1
  30   18   19 ar
  31   18   27 1
  32   19   20 ar
  33   19   24 1
  34   20   21 ar
  35   20   40 1
  36   21   41 1
  37   22   23 1
  38   22   26 1
  39   22   42 1
  40   23   24 2
  41   24   25 1
  42   25   26 2
  43   26   43 1
  44   28   29 1
  45   28   32 1
  46   28   44 1
  47   29   30 1
  48   29   45 1
  49   29   46 1
  50   30   31 1
  51   30   47 1
  52   30   48 1
  53   31   32 1
  54   31   49 1
  55   31   50 1
  56   32   51 1
  57   32   52 1

#	End of record

