#	Name: ASD05068002
#	Creating user name:	WinNT
#	Creation time:	15. 06. 2019 20:56

#	Modifying user name:	WinNT
#	Modification time:	15. 06. 2019 20:56

#	Program:	/corina/corina34_cracker 3.40 0067  02.08.2006

@<TRIPOS>MOLECULE
ASD05068002
  60   63    0    0    0
SMALL
NO_CHARGES


@<TRIPOS>ATOM
   1 C1            -0.0143     1.2041     0.0087 C.2     
   2 C2            -1.3295     1.9397     0.0189 C.3     
   3 O3             0.0021    -0.0041     0.0020 O.2     
   4 O4             1.1389     1.8910     0.0013 O.3     
   5 N5            -1.8948     2.6594     3.6340 N.ar    
   6 C6            -1.7665     2.0298     2.4904 C.ar    
   7 C7            -1.4686     2.7020     1.3114 C.ar    
   8 C8            -1.2994     4.0805     1.3310 C.ar    
   9 C9            -1.4412     4.7470     2.5750 C.ar    
  10 C10           -1.2867     6.1351     2.6800 C.ar    
  11 C11           -1.4312     6.7395     3.8931 C.ar    
  12 C12           -1.7309     5.9938     5.0303 C.ar    
  13 C13           -1.8875     4.6430     4.9628 C.ar    
  14 C14           -1.7458     3.9851     3.7287 C.ar    
  15 C15           -1.9469     0.5340     2.4544 C.3     
  16 C16            1.1943     7.4385    -3.5594 C.3     
  17 C17            2.2062     6.3214    -3.2738 C.3     
  18 C18            2.0954     5.9395    -1.7957 C.3     
  19 C19            0.6466     5.7346    -1.4310 C.ar    
  20 C20            0.3464     5.0357    -0.2764 C.ar    
  21 C21           -0.9810     4.8293     0.0945 C.ar    
  22 C22           -2.0090     5.3321    -0.7049 C.ar    
  23 C23           -1.7042     6.0272    -1.8550 C.ar    
  24 C24           -0.3741     6.2306    -2.2246 C.ar    
  25 O25           -0.1205     6.9135    -3.3716 O.3     
  26 C26            1.4589     4.4945     0.5841 C.3     
  27 F27           -2.6986     6.5140    -2.6292 F       
  28 O28           -2.4010     1.0016    -0.0985 O.3     
  29 C29           -2.7874     0.7264    -1.4465 C.3     
  30 C30           -1.5950     0.1478    -2.2109 C.3     
  31 C31           -3.9357    -0.2848    -1.4515 C.3     
  32 C32           -3.2454     2.0214    -2.1203 C.3     
  33 H33           -1.3628     2.6361    -0.8190 H       
  34 H34            1.9569     1.3754    -0.0092 H       
  35 H35           -1.0539     6.7233     1.8046 H       
  36 H36           -1.3116     7.8098     3.9734 H       
  37 H37           -1.8404     6.4947     5.9808 H       
  38 H38           -2.1195     4.0790     5.8542 H       
  39 H39           -2.9941     0.2989     2.2640 H       
  40 H40           -1.3299     0.1127     1.6608 H       
  41 H41           -1.6473     0.1088     3.4122 H       
  42 H42            1.3599     8.2683    -2.8724 H       
  43 H43            1.3085     7.7834    -4.5871 H       
  44 H44            1.9816     5.4544    -3.8952 H       
  45 H45            3.2147     6.6757    -3.4872 H       
  46 H46            2.6483     5.0173    -1.6170 H       
  47 H47            2.5145     6.7373    -1.1826 H       
  48 H48           -3.0399     5.1764    -0.4231 H       
  49 H49            1.7405     5.2416     1.3262 H       
  50 H50            1.1203     3.5901     1.0894 H       
  51 H51            2.3207     4.2605    -0.0410 H       
  52 H52           -1.2688    -0.7748    -1.7309 H       
  53 H53           -1.8898    -0.0621    -3.2391 H       
  54 H54           -0.7770     0.8682    -2.2073 H       
  55 H55           -4.7852     0.1274    -0.9070 H       
  56 H56           -4.2304    -0.4947    -2.4797 H       
  57 H57           -3.6094    -1.2074    -0.9715 H       
  58 H58           -2.4274     2.7418    -2.1167 H       
  59 H59           -3.5402     1.8115    -3.1485 H       
  60 H60           -4.0949     2.4336    -1.5757 H       
@<TRIPOS>BOND
   1    1    3 2
   2    1    4 1
   3    1    2 1
   4    2    7 1
   5    2   28 1
   6    2   33 1
   7    4   34 1
   8    5    6 ar
   9    5   14 ar
  10    6    7 ar
  11    6   15 1
  12    7    8 ar
  13    8    9 ar
  14    8   21 1
  15    9   10 ar
  16    9   14 ar
  17   10   11 ar
  18   10   35 1
  19   11   12 ar
  20   11   36 1
  21   12   13 ar
  22   12   37 1
  23   13   14 ar
  24   13   38 1
  25   15   39 1
  26   15   40 1
  27   15   41 1
  28   16   17 1
  29   16   25 1
  30   16   42 1
  31   16   43 1
  32   17   18 1
  33   17   44 1
  34   17   45 1
  35   18   19 1
  36   18   46 1
  37   18   47 1
  38   19   20 ar
  39   19   24 ar
  40   20   21 ar
  41   20   26 1
  42   21   22 ar
  43   22   23 ar
  44   22   48 1
  45   23   24 ar
  46   23   27 1
  47   24   25 1
  48   26   49 1
  49   26   50 1
  50   26   51 1
  51   28   29 1
  52   29   30 1
  53   29   32 1
  54   29   31 1
  55   30   52 1
  56   30   53 1
  57   30   54 1
  58   31   55 1
  59   31   56 1
  60   31   57 1
  61   32   58 1
  62   32   59 1
  63   32   60 1

#	End of record

