#	Name: ASD01881414
#	Creating user name:	WinNT
#	Creation time:	15. 06. 2019 19:42

#	Modifying user name:	WinNT
#	Modification time:	15. 06. 2019 19:42

#	Program:	/corina/corina34_cracker 3.40 0067  02.08.2006

@<TRIPOS>MOLECULE
ASD01881414
  50   54    0    0    0
SMALL
NO_CHARGES


@<TRIPOS>ATOM
   1 C1             0.0213     1.5030     0.0496 C.3     
   2 C2             1.1027    10.1113     4.2527 C.ar    
   3 C3             1.2921     9.0233     3.4276 C.ar    
   4 C4            -0.0136    10.1732     5.0785 C.ar    
   5 C5            -0.9430     9.1372     5.0747 C.ar    
   6 C6            -0.7579     8.0471     4.2512 C.ar    
   7 C7             0.3624     7.9834     3.4215 C.ar    
   8 C8             0.5637     6.8137     2.5353 C.2     
   9 C9             0.5340     6.9654     1.1615 C.2     
  10 C10            0.7942     5.5298     3.0870 C.2     
  11 C11            0.9768     4.4681     2.2799 C.2     
  12 N12            0.9435     4.6077     0.9222 N.pl3   
  13 C13            0.7282     5.8370     0.3471 C.2     
  14 C14            1.0909     3.7343    -0.1123 C.2     
  15 N15            0.9635     4.4137    -1.2227 N.2     
  16 N16            0.7500     5.6560    -0.9646 N.2     
  17 C17            1.3531     2.2547     0.0016 C.3     
  18 Cl18          -2.3358     9.2175     6.1077 Cl      
  19 N19           -0.2028    11.2760     5.9128 N.3     
  20 C20           -1.3760    12.0573     5.4953 C.3     
  21 C21            0.0727    -0.0261     0.0472 C.3     
  22 C22           -0.3050     0.7246     1.3257 C.3     
  23 C23           -1.5814    13.2199     6.4701 C.3     
  24 O24           -0.3917    14.0123     6.5165 O.3     
  25 C25            0.7704    13.2830     6.9201 C.3     
  26 C26            0.9996    12.1211     5.9499 C.3     
  27 C27            0.2965     8.3206     0.5467 C.3     
  28 F28            1.5253     8.9192     0.2484 F       
  29 F29           -0.4489     8.1755    -0.6283 F       
  30 F30           -0.4074     9.1252     1.4491 F       
  31 H31           -0.8067     1.9796    -0.4752 H       
  32 H32            1.8248    10.9144     4.2608 H       
  33 H33            2.1596     8.9763     2.7860 H       
  34 H34           -1.4789     7.2430     4.2485 H       
  35 H35            0.8235     5.4021     4.1591 H       
  36 H36            1.1525     3.4939     2.7117 H       
  37 H37            1.9163     2.0546     0.9131 H       
  38 H38            1.9282     1.9201    -0.8617 H       
  39 H39           -1.2140    12.4487     4.4910 H       
  40 H40           -2.2591    11.4184     5.4996 H       
  41 H41           -0.7217    -0.5556    -0.4789 H       
  42 H42            1.0553    -0.4966     0.0114 H       
  43 H43            0.4291     0.7480     2.1311 H       
  44 H44           -1.3478     0.6891     1.6408 H       
  45 H45           -2.4155    13.8350     6.1324 H       
  46 H46           -1.7965    12.8278     7.4641 H       
  47 H47            1.6372    13.9437     6.9079 H       
  48 H48            0.6237    12.8927     7.9272 H       
  49 H49            1.8506    11.5287     6.2860 H       
  50 H50            1.1995    12.5135     4.9528 H       
@<TRIPOS>BOND
   1    1   21 1
   2    1   17 1
   3    1   22 1
   4    1   31 1
   5    2    3 ar
   6    2    4 ar
   7    2   32 1
   8    3    7 ar
   9    3   33 1
  10    4    5 ar
  11    4   19 1
  12    5    6 ar
  13    5   18 1
  14    6    7 ar
  15    6   34 1
  16    7    8 1
  17    8    9 2
  18    8   10 1
  19    9   27 1
  20    9   13 1
  21   10   11 2
  22   10   35 1
  23   11   12 1
  24   11   36 1
  25   12   13 1
  26   12   14 1
  27   13   16 2
  28   14   15 2
  29   14   17 1
  30   15   16 1
  31   17   37 1
  32   17   38 1
  33   19   20 1
  34   19   26 1
  35   20   23 1
  36   20   39 1
  37   20   40 1
  38   21   22 1
  39   21   41 1
  40   21   42 1
  41   22   43 1
  42   22   44 1
  43   23   24 1
  44   23   45 1
  45   23   46 1
  46   24   25 1
  47   25   26 1
  48   25   47 1
  49   25   48 1
  50   26   49 1
  51   26   50 1
  52   27   28 1
  53   27   29 1
  54   27   30 1

#	End of record

