#	Name: ASD02560504
#	Creating user name:	WinNT
#	Creation time:	15. 06. 2019 20:25

#	Modifying user name:	WinNT
#	Modification time:	15. 06. 2019 20:25

#	Program:	/corina/corina34_cracker 3.40 0067  02.08.2006

@<TRIPOS>MOLECULE
ASD02560504
  42   44    0    0    0
SMALL
NO_CHARGES


@<TRIPOS>ATOM
   1 C1            -0.1695     1.3952    -1.0905 C.2     
   2 C2            -0.1512    -0.0117    -1.0867 C.2     
   3 C3            -1.2624    -0.7067    -0.7681 C.2     
   4 N4            -2.4219    -0.0551    -0.4444 N.pl3   
   5 C5            -2.4689     1.3199    -0.4398 C.2     
   6 C6            -1.3119     2.0568    -0.7662 C.2     
   7 C7            -3.6662    -0.4994    -0.0893 C.2     
   8 C8            -4.4364     0.5977     0.1218 C.2     
   9 N9            -3.6929     1.6884    -0.0956 N.2     
  10 C10           -5.8866     0.5890     0.5316 C.3     
  11 N11           -4.0693    -1.8350     0.0329 N.3     
  12 C12           -2.9243    -2.7450    -0.1038 C.3     
  13 C13           -6.0428     1.3144     1.8696 C.3     
  14 C14           -3.2213    -4.0765     0.6081 C.3     
  15 C15           -6.7222     1.3001    -0.5347 C.3     
  16 C16           -3.1594    -5.1768    -0.4715 C.3     
  17 C17           -2.2634    -4.5710    -1.5802 C.3     
  18 C18           -2.6922    -3.0827    -1.5910 C.3     
  19 Br19           1.4393    -0.9329    -1.5312 Br      
  20 C20            1.0753     2.1662    -1.4468 C.3     
  21 H21           -1.2372    -1.7864    -0.7688 H       
  22 H22           -1.3353     3.1366    -0.7664 H       
  23 H23           -6.2289    -0.4408     0.6345 H       
  24 H24           -4.5513    -1.9888     0.9058 H       
  25 H25           -2.0307    -2.2865     0.3197 H       
  26 H26           -7.0917     1.3081     2.1661 H       
  27 H27           -5.4475     0.8078     2.6293 H       
  28 H28           -5.7005     2.3441     1.7668 H       
  29 H29           -2.4714    -4.2646     1.3764 H       
  30 H30           -4.2151    -4.0474     1.0549 H       
  31 H31           -6.6109     0.7832    -1.4879 H       
  32 H32           -7.7711     1.2937    -0.2382 H       
  33 H33           -6.3799     2.3298    -0.6375 H       
  34 H34           -2.7068    -6.0824    -0.0676 H       
  35 H35           -4.1561    -5.3875    -0.8591 H       
  36 H36           -1.2092    -4.6674    -1.3207 H       
  37 H37           -2.4698    -5.0394    -2.5426 H       
  38 H38           -3.6134    -2.9552    -2.1595 H       
  39 H39           -1.8986    -2.4600    -2.0042 H       
  40 H40            1.8830     1.4692    -1.6704 H       
  41 H41            0.8799     2.7882    -2.3203 H       
  42 H42            1.3635     2.7990    -0.6074 H       
@<TRIPOS>BOND
   1    1    2 1
   2    1   20 1
   3    1    6 2
   4    2    3 2
   5    2   19 1
   6    3    4 1
   7    3   21 1
   8    4    5 1
   9    4    7 1
  10    5    6 1
  11    5    9 2
  12    6   22 1
  13    7    8 2
  14    7   11 1
  15    8    9 1
  16    8   10 1
  17   10   13 1
  18   10   15 1
  19   10   23 1
  20   11   12 1
  21   11   24 1
  22   12   14 1
  23   12   18 1
  24   12   25 1
  25   13   26 1
  26   13   27 1
  27   13   28 1
  28   14   16 1
  29   14   29 1
  30   14   30 1
  31   15   31 1
  32   15   32 1
  33   15   33 1
  34   16   17 1
  35   16   34 1
  36   16   35 1
  37   17   18 1
  38   17   36 1
  39   17   37 1
  40   18   38 1
  41   18   39 1
  42   20   40 1
  43   20   41 1
  44   20   42 1

#	End of record

