#	Name: ASD01410097
#	Creating user name:	WinNT
#	Creation time:	15. 06. 2019 19:16

#	Modifying user name:	WinNT
#	Modification time:	15. 06. 2019 19:16

#	Program:	/corina/corina34_cracker 3.40 0067  02.08.2006

@<TRIPOS>MOLECULE
ASD01410097
  69   72    0    0    0
SMALL
NO_CHARGES


@<TRIPOS>ATOM
   1 C1            -0.0169     1.3984     0.0097 C.ar    
   2 C2             0.0021    -0.0041     0.0020 C.ar    
   3 C3            -1.1636    -0.7088     0.0093 C.ar    
   4 C4            -2.3884    -0.0332     0.0251 C.ar    
   5 C5            -2.4202     1.3759     0.0335 C.ar    
   6 C6            -1.2294     2.0856     0.0308 C.ar    
   7 C7            -3.7848    -0.4676     0.0367 C.2     
   8 C8            -4.5429     0.6429     0.0507 C.2     
   9 N9            -3.7462     1.7519     0.0490 N.pl3   
  10 C10           -6.0497     0.6609     0.0652 C.3     
  11 C11           -4.2803    -1.8908     0.0335 C.3     
  12 C12           -3.7790    -2.6026    -1.2247 C.3     
  13 C13           -4.2822    -4.0475    -1.2279 C.3     
  14 C14           -3.7567    -4.7733     0.0123 C.3     
  15 C15           -4.2581    -4.0615     1.2704 C.3     
  16 C16           -3.7549    -2.6166     1.2737 C.3     
  17 C17            1.2519     2.1493     0.0016 C.2     
  18 O18            2.4260     1.4882    -0.0131 O.3     
  19 C19           -4.2288     3.1350     0.0622 C.3     
  20 C20           -4.3796     3.6009     1.4875 C.2     
  21 N21           -4.8136     4.8504     1.7457 N.am    
  22 O22            1.2388     3.3643     0.0083 O.2     
  23 O23           -4.1104     2.8513     2.4021 O.2     
  24 C24           -4.9656     5.3190     3.1299 C.3     
  25 C25           -6.3881     5.8567     3.3150 C.3     
  26 C26           -6.6670     6.9253     2.2555 C.3     
  27 C27           -6.5636     6.3029     0.8613 C.3     
  28 C28           -5.1378     5.7720     0.6483 C.3     
  29 N29           -8.0186     7.4668     2.4507 N.3     
  30 C30           -8.2788     8.5785     1.5263 C.3     
  31 C31           -9.0332     6.4143     2.3072 C.3     
  32 C32           -6.5734     0.6758    -1.3723 C.3     
  33 H33            0.9463    -0.5282    -0.0102 H       
  34 H34           -1.1422    -1.7885     0.0026 H       
  35 H35           -1.2412     3.1655     0.0371 H       
  36 H36           -6.4187    -0.2278     0.5771 H       
  37 H37           -6.3974     1.5520     0.5878 H       
  38 H38           -5.3703    -1.8960     0.0440 H       
  39 H39           -4.1534    -2.0855    -2.1082 H       
  40 H40           -2.6891    -2.5974    -1.2352 H       
  41 H41           -5.3721    -4.0527    -1.2174 H       
  42 H42           -3.9250    -4.5546    -2.1242 H       
  43 H43           -4.1152    -5.8027     0.0100 H       
  44 H44           -2.6668    -4.7681     0.0018 H       
  45 H45           -5.3480    -4.0667     1.2809 H       
  46 H46           -3.8837    -4.5785     2.1540 H       
  47 H47           -2.6650    -2.6114     1.2632 H       
  48 H48           -4.1121    -2.1095     2.1700 H       
  49 H49            3.2313     2.0236    -0.0179 H       
  50 H50           -3.5136     3.7744    -0.4552 H       
  51 H51           -5.1941     3.1879    -0.4413 H       
  52 H52           -4.7961     4.4900     3.8170 H       
  53 H53           -4.2460     6.1134     3.3279 H       
  54 H54           -7.1025     5.0408     3.2058 H       
  55 H55           -6.4849     6.2952     4.3082 H       
  56 H56           -5.9369     7.7291     2.3495 H       
  57 H57           -7.2764     5.4828     0.7751 H       
  58 H58           -6.7853     7.0589     0.1080 H       
  59 H59           -4.4347     6.6049     0.6437 H       
  60 H60           -5.0839     5.2404    -0.3017 H       
  61 H61           -8.1887     8.2254     0.4990 H       
  62 H62           -9.2860     8.9607     1.6921 H       
  63 H63           -7.5548     9.3741     1.7018 H       
  64 H64           -8.8576     5.6366     3.0505 H       
  65 H65          -10.0245     6.8424     2.4565 H       
  66 H66           -8.9705     5.9829     1.3082 H       
  67 H67           -7.6633     0.6888    -1.3619 H       
  68 H68           -6.2043     1.5645    -1.8843 H       
  69 H69           -6.2257    -0.2153    -1.8949 H       
@<TRIPOS>BOND
   1    1    2 ar
   2    1   17 1
   3    1    6 ar
   4    2    3 ar
   5    2   33 1
   6    3    4 ar
   7    3   34 1
   8    4    5 ar
   9    4    7 1
  10    5    6 ar
  11    5    9 1
  12    6   35 1
  13    7    8 2
  14    7   11 1
  15    8    9 1
  16    8   10 1
  17    9   19 1
  18   10   32 1
  19   10   36 1
  20   10   37 1
  21   11   12 1
  22   11   16 1
  23   11   38 1
  24   12   13 1
  25   12   39 1
  26   12   40 1
  27   13   14 1
  28   13   41 1
  29   13   42 1
  30   14   15 1
  31   14   43 1
  32   14   44 1
  33   15   16 1
  34   15   45 1
  35   15   46 1
  36   16   47 1
  37   16   48 1
  38   17   18 1
  39   17   22 2
  40   18   49 1
  41   19   20 1
  42   19   50 1
  43   19   51 1
  44   20   21 am
  45   20   23 2
  46   21   24 1
  47   21   28 1
  48   24   25 1
  49   24   52 1
  50   24   53 1
  51   25   26 1
  52   25   54 1
  53   25   55 1
  54   26   27 1
  55   26   29 1
  56   26   56 1
  57   27   28 1
  58   27   57 1
  59   27   58 1
  60   28   59 1
  61   28   60 1
  62   29   30 1
  63   29   31 1
  64   30   61 1
  65   30   62 1
  66   30   63 1
  67   31   64 1
  68   31   65 1
  69   31   66 1
  70   32   67 1
  71   32   68 1
  72   32   69 1

#	End of record

