#	Name: ASD01150377
#	Creating user name:	WinNT
#	Creation time:	15. 06. 2019 19:04

#	Modifying user name:	WinNT
#	Modification time:	15. 06. 2019 19:04

#	Program:	/corina/corina34_cracker 3.40 0067  02.08.2006

@<TRIPOS>MOLECULE
ASD01150377
  42   44    0    0    0
SMALL
NO_CHARGES


@<TRIPOS>ATOM
   1 C1             0.4936     1.4531    -1.2470 C.ar    
   2 C2             0.3672     0.0775    -1.2361 C.ar    
   3 C3             1.0255    -0.6726    -0.2777 C.ar    
   4 C4             1.8168    -0.0425     0.6771 C.ar    
   5 C5             1.9451     1.3384     0.6672 C.ar    
   6 C6             1.2828     2.0876    -0.2956 C.ar    
   7 N7             1.4105     3.4812    -0.3085 N.am    
   8 C8             0.2988     4.2290    -0.3878 C.2     
   9 N9             0.3614     5.5757    -0.4040 N.am    
  10 C10            1.5760     6.1699    -0.3383 C.2     
  11 C11            2.7628     5.2965    -0.2525 C.2     
  12 N12            2.5865     3.9928    -0.2387 N.2     
  13 O13            1.6855     7.3814    -0.3500 O.2     
  14 C14           -0.8601     6.3796    -0.4914 C.3     
  15 O15           -0.7850     3.6817    -0.4465 O.2     
  16 C16           -1.3665     6.6764     0.8966 C.ar    
  17 C17           -0.9419     7.8133     1.5586 C.ar    
  18 C18           -1.4060     8.0860     2.8317 C.ar    
  19 C19           -2.2957     7.2210     3.4434 C.ar    
  20 C20           -2.7203     6.0833     2.7804 C.ar    
  21 C21           -2.2599     5.8146     1.5052 C.ar    
  22 Cl22          -2.8786     7.5626     5.0425 Cl      
  23 C23            4.0787     5.8568    -0.1806 C.1     
  24 N24            5.1226     6.3012    -0.1235 N.1     
  25 N25            2.4828    -0.8015     1.6474 N.am    
  26 C26            2.7596    -0.2628     2.8514 C.2     
  27 O27            2.5018     0.9024     3.0682 O.2     
  28 C28            3.3895    -1.1081     3.9283 C.3     
  29 F29            0.8993    -2.0176    -0.2691 F       
  30 H30           -0.0182     2.0357    -1.9987 H       
  31 H31           -0.2468    -0.4133    -1.9767 H       
  32 H32            2.5586     1.8301     1.4077 H       
  33 H33           -0.6433     7.3153    -1.0068 H       
  34 H34           -1.6197     5.8275    -1.0449 H       
  35 H35           -0.2471     8.4883     1.0811 H       
  36 H36           -1.0739     8.9740     3.3489 H       
  37 H37           -3.4148     5.4077     3.2574 H       
  38 H38           -2.5913     4.9266     0.9875 H       
  39 H39            2.7449    -1.7150     1.4529 H       
  40 H40            4.4750    -1.0431     3.8529 H       
  41 H41            3.0709    -0.7474     4.9063 H       
  42 H42            3.0783    -2.1454     3.8045 H       
@<TRIPOS>BOND
   1    1    2 ar
   2    1    6 ar
   3    1   30 1
   4    2    3 ar
   5    2   31 1
   6    3    4 ar
   7    3   29 1
   8    4    5 ar
   9    4   25 1
  10    5    6 ar
  11    5   32 1
  12    6    7 1
  13    7    8 am
  14    7   12 1
  15    8    9 am
  16    8   15 2
  17    9   10 am
  18    9   14 1
  19   10   11 1
  20   10   13 2
  21   11   12 2
  22   11   23 1
  23   14   16 1
  24   14   33 1
  25   14   34 1
  26   16   17 ar
  27   16   21 ar
  28   17   18 ar
  29   17   35 1
  30   18   19 ar
  31   18   36 1
  32   19   20 ar
  33   19   22 1
  34   20   21 ar
  35   20   37 1
  36   21   38 1
  37   23   24 3
  38   25   26 am
  39   25   39 1
  40   26   27 2
  41   26   28 1
  42   28   40 1
  43   28   41 1
  44   28   42 1

#	End of record

