#	Name: ASD03090628
#	Creating user name:	WinNT
#	Creation time:	15. 06. 2019 20:29

#	Modifying user name:	WinNT
#	Modification time:	15. 06. 2019 20:29

#	Program:	/corina/corina34_cracker 3.40 0067  02.08.2006

@<TRIPOS>MOLECULE
ASD03090628
  33   34    0    0    0
SMALL
NO_CHARGES


@<TRIPOS>ATOM
   1 N1            -0.0162     1.3436     0.0094 N.am    
   2 C2             0.0256     0.1492     0.6326 C.2     
   3 O3             1.0817    -0.2781     1.0576 O.2     
   4 N4            -1.1031    -0.5714     0.7847 N.am    
   5 S5            -2.3999    -2.8359     1.6991 S.3     
   6 C6            -1.0599    -1.8038     1.4277 C.2     
   7 N7             0.0033    -2.3634     1.9213 N.2     
   8 N8            -0.1308    -3.4901     2.4749 N.2     
   9 C9            -1.3270    -3.9857     2.4982 C.2     
  10 C10           -1.7301    -5.3070     3.1003 C.3     
  11 C11            1.1405     2.1312    -0.0748 C.ar    
  12 C12            1.0344     3.5106    -0.2050 C.ar    
  13 C13            2.1751     4.2858    -0.2874 C.ar    
  14 C14            3.4257     3.6870    -0.2401 C.ar    
  15 C15            3.5317     2.3103    -0.1102 C.ar    
  16 C16            2.3922     1.5343    -0.0223 C.ar    
  17 C17            4.8908     1.6612    -0.0594 C.3     
  18 O18            4.5480     4.4503    -0.3217 O.3     
  19 C19            4.3648     5.8613    -0.4548 C.3     
  20 Cl20          -0.5307     4.2594    -0.2647 Cl      
  21 H21           -0.8457     1.6564    -0.3843 H       
  22 H22           -1.9455    -0.2305     0.4456 H       
  23 H23           -1.6532    -6.0891     2.3449 H       
  24 H24           -1.0701    -5.5423     3.9353 H       
  25 H25           -2.7585    -5.2455     3.4562 H       
  26 H26            2.0932     5.3579    -0.3890 H       
  27 H27            2.4755     0.4626     0.0830 H       
  28 H28            5.2267     1.6019     0.9758 H       
  29 H29            4.8298     0.6573    -0.4797 H       
  30 H30            5.5988     2.2548    -0.6377 H       
  31 H31            3.8016     6.0703    -1.3643 H       
  32 H32            3.8156     6.2393     0.4075 H       
  33 H33            5.3373     6.3504    -0.5090 H       
@<TRIPOS>BOND
   1    1    2 am
   2    1   11 1
   3    1   21 1
   4    2    3 2
   5    2    4 am
   6    4    6 1
   7    4   22 1
   8    5    6 1
   9    5    9 1
  10    6    7 2
  11    7    8 1
  12    8    9 2
  13    9   10 1
  14   10   23 1
  15   10   24 1
  16   10   25 1
  17   11   12 ar
  18   11   16 ar
  19   12   13 ar
  20   12   20 1
  21   13   14 ar
  22   13   26 1
  23   14   15 ar
  24   14   18 1
  25   15   16 ar
  26   15   17 1
  27   16   27 1
  28   17   28 1
  29   17   29 1
  30   17   30 1
  31   18   19 1
  32   19   31 1
  33   19   32 1
  34   19   33 1

#	End of record

