#	Name: ASD01911482
#	Creating user name:	WinNT
#	Creation time:	15. 06. 2019 19:57

#	Modifying user name:	WinNT
#	Modification time:	15. 06. 2019 19:57

#	Program:	/corina/corina34_cracker 3.40 0067  02.08.2006

@<TRIPOS>MOLECULE
ASD01911482
  38   41    0    0    0
SMALL
NO_CHARGES


@<TRIPOS>ATOM
   1 C1            -0.0188     1.5387     0.0105 C.3     
   2 C2             0.0021    -0.0041     0.0020 C.3     
   3 C3            -0.7080    -0.4031     1.3192 C.3     
   4 C4            -0.2077     0.6715     2.3162 C.3     
   5 C5            -0.1644     1.9682     1.4826 C.3     
   6 N6             1.1886     2.5018     1.2944 N.am    
   7 C7             1.3594     2.1544     0.0006 C.2     
   8 O8             2.2436     2.2822    -0.8196 O.2     
   9 C9             2.0369     3.1641     2.1785 C.ar    
  10 C10            1.6590     3.3130     3.5100 C.ar    
  11 C11            2.5035     3.9702     4.3816 C.ar    
  12 C12            3.7190     4.4657     3.8855 C.ar    
  13 C13            4.0270     4.2766     2.5368 C.ar    
  14 N14            3.1935     3.6384     1.7415 N.ar    
  15 C15            4.6296     5.1553     4.7493 C.1     
  16 C16            5.3760     5.7206     5.4574 C.1     
  17 C17            6.2866     6.4101     6.3212 C.ar    
  18 C18            7.4951     6.9007     5.8196 C.ar    
  19 C19            8.3669     7.5642     6.6574 C.ar    
  20 C20            8.0474     7.7443     7.9917 C.ar    
  21 C21            6.8525     7.2613     8.4955 C.ar    
  22 C22            5.9683     6.6009     7.6684 C.ar    
  23 H23           -0.7253     1.9790    -0.6931 H       
  24 H24           -0.5464    -0.3880    -0.8582 H       
  25 H25            1.0283    -0.3713    -0.0042 H       
  26 H26           -1.7908    -0.3504     1.2056 H       
  27 H27           -0.4000    -1.3989     1.6378 H       
  28 H28           -0.9053     0.7753     3.1473 H       
  29 H29            0.7878     0.4192     2.6815 H       
  30 H30           -0.9523     2.6872     1.7068 H       
  31 H31            0.7153     2.9189     3.8570 H       
  32 H32            2.2353     4.1001     5.4196 H       
  33 H33            4.9595     4.6533     2.1431 H       
  34 H34            7.7460     6.7602     4.7786 H       
  35 H35            9.3013     7.9439     6.2712 H       
  36 H36            8.7343     8.2640     8.6432 H       
  37 H37            6.6101     7.4053     9.5381 H       
  38 H38            5.0342     6.2281     8.0620 H       
@<TRIPOS>BOND
   1    1    2 1
   2    1    7 1
   3    1    5 1
   4    1   23 1
   5    2    3 1
   6    2   24 1
   7    2   25 1
   8    3    4 1
   9    3   26 1
  10    3   27 1
  11    4    5 1
  12    4   28 1
  13    4   29 1
  14    5    6 1
  15    5   30 1
  16    6    7 am
  17    6    9 1
  18    7    8 2
  19    9   10 ar
  20    9   14 ar
  21   10   11 ar
  22   10   31 1
  23   11   12 ar
  24   11   32 1
  25   12   13 ar
  26   12   15 1
  27   13   14 ar
  28   13   33 1
  29   15   16 3
  30   16   17 1
  31   17   18 ar
  32   17   22 ar
  33   18   19 ar
  34   18   34 1
  35   19   20 ar
  36   19   35 1
  37   20   21 ar
  38   20   36 1
  39   21   22 ar
  40   21   37 1
  41   22   38 1

#	End of record

