#	Name: ASD03930151
#	Creating user name:	WinNT
#	Creation time:	15. 06. 2019 20:47

#	Modifying user name:	WinNT
#	Modification time:	15. 06. 2019 20:47

#	Program:	/corina/corina34_cracker 3.40 0067  02.08.2006

@<TRIPOS>MOLECULE
ASD03930151
  53   56    0    0    0
SMALL
NO_CHARGES


@<TRIPOS>ATOM
   1 C1            -0.0162     1.3436     0.0094 C.2     
   2 N2             0.0021    -0.0041     0.0020 N.am    
   3 O3             1.0346     1.9695     0.0028 O.co2   
   4 O4            -1.0836     1.9406     0.0177 O.co2   
   5 C5            -2.1013    -0.3944     1.2508 C.3     
   6 C6            -1.2565    -0.7538     0.0100 C.3     
   7 C7            -2.1686    -0.3072    -1.1523 C.3     
   8 C8            -3.5771    -0.3862    -0.6036 C.ar    
   9 C9            -4.7961    -0.4122    -1.2604 C.ar    
  10 C10           -5.9721    -0.4880    -0.5404 C.ar    
  11 C11           -5.9334    -0.5381     0.8407 C.ar    
  12 C12           -4.7189    -0.5123     1.4975 C.ar    
  13 C13           -3.5384    -0.4363     0.7772 C.ar    
  14 C14           -7.2962    -0.5165    -1.2594 C.3     
  15 N15           -7.6677    -1.9048    -1.5436 N.pl3   
  16 N16           -6.8879    -2.8419    -2.2336 N.2     
  17 C17           -7.5535    -3.9670    -2.2877 C.2     
  18 C18           -8.7768    -3.7828    -1.6349 C.2     
  19 C19           -8.8192    -2.5085    -1.1819 C.2     
  20 C20           -7.0836    -5.2412    -2.9410 C.3     
  21 F21           -5.7683    -5.0781    -3.3887 F       
  22 F22           -7.1341    -6.2870    -2.0132 F       
  23 F23           -7.9123    -5.5413    -4.0275 F       
  24 C24           -9.8544    -4.8219    -1.4612 C.3     
  25 O25          -10.9512    -4.2550    -0.7417 O.3     
  26 C26            1.2806    -0.7192    -0.0140 C.3     
  27 C27            1.7325    -0.9721     1.4012 C.ar    
  28 C28            1.3554    -2.1328     2.0502 C.ar    
  29 C29            1.7699    -2.3647     3.3484 C.ar    
  30 C30            2.5619    -1.4361     3.9974 C.ar    
  31 C31            2.9398    -0.2758     3.3480 C.ar    
  32 C32            2.5289    -0.0459     2.0483 C.ar    
  33 H33           -1.9423    -1.1272     2.0418 H       
  34 H34           -1.8485     0.6054     1.6038 H       
  35 H35           -1.0700    -1.8268    -0.0342 H       
  36 H36           -1.9338     0.7161    -1.4456 H       
  37 H37           -2.0554    -0.9804    -2.0020 H       
  38 H38           -4.8271    -0.3727    -2.3393 H       
  39 H39           -6.8522    -0.5970     1.4054 H       
  40 H40           -4.6895    -0.5515     2.5764 H       
  41 H41           -8.0602    -0.0570    -0.6322 H       
  42 H42           -7.2135     0.0363    -2.1952 H       
  43 H43           -9.6304    -2.0549    -0.6318 H       
  44 H44          -10.1966    -5.1576    -2.4401 H       
  45 H45           -9.4549    -5.6702    -0.9055 H       
  46 H46          -11.6833    -4.8690    -0.5929 H       
  47 H47            1.1583    -1.6705    -0.5318 H       
  48 H48            2.0272    -0.1171    -0.5318 H       
  49 H49            0.7365    -2.8584     1.5432 H       
  50 H50            1.4746    -3.2713     3.8558 H       
  51 H51            2.8852    -1.6170     5.0119 H       
  52 H52            3.5584     0.4499     3.8552 H       
  53 H53            2.8272     0.8590     1.5397 H       
@<TRIPOS>BOND
   1    1    2 am
   2    1    3 ar
   3    1    4 ar
   4    2   26 1
   5    2    6 1
   6    5    6 1
   7    5   13 1
   8    5   33 1
   9    5   34 1
  10    6    7 1
  11    6   35 1
  12    7    8 1
  13    7   36 1
  14    7   37 1
  15    8    9 ar
  16    8   13 ar
  17    9   10 ar
  18    9   38 1
  19   10   11 ar
  20   10   14 1
  21   11   12 ar
  22   11   39 1
  23   12   13 ar
  24   12   40 1
  25   14   15 1
  26   14   41 1
  27   14   42 1
  28   15   16 1
  29   15   19 1
  30   16   17 2
  31   17   18 1
  32   17   20 1
  33   18   19 2
  34   18   24 1
  35   19   43 1
  36   20   21 1
  37   20   22 1
  38   20   23 1
  39   24   25 1
  40   24   44 1
  41   24   45 1
  42   25   46 1
  43   26   27 1
  44   26   47 1
  45   26   48 1
  46   27   28 ar
  47   27   32 ar
  48   28   29 ar
  49   28   49 1
  50   29   30 ar
  51   29   50 1
  52   30   31 ar
  53   30   51 1
  54   31   32 ar
  55   31   52 1
  56   32   53 1

#	End of record

