#	Name: ASD01320048
#	Creating user name:	WinNT
#	Creation time:	15. 06. 2019 19:15

#	Modifying user name:	WinNT
#	Modification time:	15. 06. 2019 19:15

#	Program:	/corina/corina34_cracker 3.40 0067  02.08.2006

@<TRIPOS>MOLECULE
ASD01320048
  42   43    0    0    0
SMALL
NO_CHARGES


@<TRIPOS>ATOM
   1 O1            -0.0173     1.4248     0.0099 O.3     
   2 C2             0.0021    -0.0041     0.0020 C.3     
   3 C3            -1.4333    -0.5336     0.0129 C.3     
   4 O4            -2.0891    -0.1579    -1.1999 O.3     
   5 C5            -3.4511    -0.5826    -1.2826 C.3     
   6 N6            -4.0303    -0.1229    -2.5472 N.am    
   7 C7            -4.7242     1.0317    -2.5904 C.2     
   8 S8            -4.9287     1.9612    -1.1673 S.2     
   9 N9            -5.2570     1.4546    -3.7538 N.am    
  10 N10           -5.0897     0.6940    -4.9184 N.2     
  11 C11           -5.6027     1.1011    -6.0386 C.2     
  12 C12           -5.4266     0.3004    -7.2646 C.ar    
  13 C13           -5.9775     0.7357    -8.4720 C.ar    
  14 C14           -5.8090    -0.0180    -9.6151 C.ar    
  15 C15           -5.0968    -1.2030    -9.5678 C.ar    
  16 C16           -4.5481    -1.6413    -8.3744 C.ar    
  17 Br17          -3.5770    -3.2631    -8.3217 Br      
  18 C18           -4.7031    -0.8939    -7.2246 C.ar    
  19 C19           -3.5123    -2.1110    -1.2186 C.3     
  20 O20           -4.8765    -2.5357    -1.2428 O.3     
  21 C21           -2.8509    -2.5869     0.0785 C.3     
  22 O22           -2.8379    -4.0154     0.1122 O.3     
  23 C23           -1.4135    -2.0600     0.1288 C.3     
  24 O24           -0.8099    -2.4370     1.3680 O.3     
  25 H25            0.8606     1.8301     0.0037 H       
  26 H26            0.5123    -0.3556    -0.8948 H       
  27 H27            0.5293    -0.3651     0.8851 H       
  28 H28           -1.9702    -0.1113     0.8623 H       
  29 H29           -4.0145    -0.1609    -0.4502 H       
  30 H30           -3.9144    -0.6495    -3.3535 H       
  31 H31           -5.7564     2.2856    -3.7849 H       
  32 H32           -6.1588     2.0264    -6.0732 H       
  33 H33           -6.5344     1.6602    -8.5105 H       
  34 H34           -6.2346     0.3177   -10.5492 H       
  35 H35           -4.9685    -1.7891   -10.4658 H       
  36 H36           -4.2704    -1.2339    -6.2954 H       
  37 H37           -2.9843    -2.5327    -2.0738 H       
  38 H38           -5.3590    -2.2641    -2.0356 H       
  39 H39           -3.4101    -2.2070     0.9335 H       
  40 H40           -3.7166    -4.4177     0.0765 H       
  41 H41           -0.8421    -2.4808    -0.6986 H       
  42 H42           -0.7639    -3.3926     1.5085 H       
@<TRIPOS>BOND
   1    1    2 1
   2    1   25 1
   3    2    3 1
   4    2   26 1
   5    2   27 1
   6    3    4 1
   7    3   23 1
   8    3   28 1
   9    4    5 1
  10    5    6 1
  11    5   19 1
  12    5   29 1
  13    6    7 am
  14    6   30 1
  15    7    8 2
  16    7    9 am
  17    9   10 1
  18    9   31 1
  19   10   11 2
  20   11   12 1
  21   11   32 1
  22   12   13 ar
  23   12   18 ar
  24   13   14 ar
  25   13   33 1
  26   14   15 ar
  27   14   34 1
  28   15   16 ar
  29   15   35 1
  30   16   17 1
  31   16   18 ar
  32   18   36 1
  33   19   20 1
  34   19   21 1
  35   19   37 1
  36   20   38 1
  37   21   22 1
  38   21   23 1
  39   21   39 1
  40   22   40 1
  41   23   24 1
  42   23   41 1
  43   24   42 1

#	End of record

