#	Name: ASD00840897
#	Creating user name:	WinNT
#	Creation time:	15. 06. 2019 18:40

#	Modifying user name:	WinNT
#	Modification time:	15. 06. 2019 18:40

#	Program:	/corina/corina34_cracker 3.40 0067  02.08.2006

@<TRIPOS>MOLECULE
ASD00840897
  93   98    0    0    0
SMALL
NO_CHARGES


@<TRIPOS>ATOM
   1 F1             6.0840    -1.9624    -1.9979 F       
   2 N2             1.0876     1.4619    -0.7363 N.ar    
   3 C3             1.3444     0.1694    -0.8480 C.ar    
   4 C4             1.2535    -0.6684     0.2564 C.ar    
   5 C5             0.8898    -0.1330     1.4794 C.ar    
   6 C6             0.6286     1.2285     1.5549 C.ar    
   7 C7             0.7386     2.0013     0.4164 C.ar    
   8 C8             1.5466    -2.1407     0.1242 C.3     
   9 C9             1.2526    -2.8588     1.4240 C.2     
  10 C10            0.7314    -2.7475    -1.0196 C.3     
  11 C11           -0.7312    -2.4550    -0.8043 C.2     
  12 N12           -1.6523    -2.9737    -1.6403 N.am    
  13 O13           -1.0794    -1.7528     0.1212 O.2     
  14 C14           -3.0728    -2.6130    -1.5160 C.3     
  15 C15           -3.5844    -2.1693    -2.8906 C.3     
  16 N16           -3.2936    -3.2163    -3.8791 N.3     
  17 C17           -1.8466    -3.4205    -4.0290 C.3     
  18 C18           -1.2629    -3.9108    -2.7049 C.3     
  19 C19           -3.9184    -2.9075    -5.1723 C.3     
  20 C20           -3.4929    -3.9514    -6.2085 C.3     
  21 C21           -4.1944    -3.6599    -7.5369 C.3     
  22 N22           -5.6495    -3.7014    -7.3430 N.3     
  23 C23           -6.0872    -2.6758    -6.3875 C.3     
  24 C24           -5.4422    -2.9380    -5.0246 C.3     
  25 C25           -6.3554    -3.5631    -8.6238 C.3     
  26 O26            0.1765    -2.9328     1.9787 O.2     
  27 N27            2.4076    -3.3991     1.8477 N.am    
  28 C28            3.0244    -2.3687    -0.0961 C.ar    
  29 C29            3.4669    -3.1301     0.9784 C.ar    
  30 C30            3.8934    -1.9774    -1.0898 C.ar    
  31 C31            5.2280    -2.3438    -1.0248 C.ar    
  32 C32            5.6818    -3.1037     0.0427 C.ar    
  33 C33            4.8095    -3.4961     1.0397 C.ar    
  34 F34            6.9828    -3.4620     0.1081 F       
  35 C35            2.2607    -5.9680     2.8242 C.ar    
  36 C36            1.0082    -6.3623     2.3772 C.ar    
  37 C37            3.2768    -6.8974     2.9371 C.ar    
  38 C38            3.0461    -8.2193     2.6046 C.ar    
  39 C39            1.7983    -8.6149     2.1587 C.ar    
  40 C40            0.7791    -7.6898     2.0445 C.ar    
  41 H41            1.6206    -9.6482     1.8995 H       
  42 O42            0.0070    -5.4502     2.2657 O.3     
  43 C43           -1.2565    -5.9274     1.7989 C.3     
  44 C44           -7.8429    -3.8582    -8.4207 C.3     
  45 C45           -8.5782    -3.7142    -9.7547 C.3     
  46 O46            1.6996    -0.3434    -2.0529 O.3     
  47 C47            2.2074    -0.1727    -4.4095 C.3     
  48 C48            1.6673     0.5456    -3.1713 C.3     
  49 S49            2.5577    -4.2819     3.2407 S.o2    
  50 O50            3.9235    -4.1978     3.6238 O.2     
  51 O51            1.4874    -3.8828     4.0860 O.2     
  52 H52            0.8106    -0.7599     2.3553 H       
  53 H53            0.3420     1.6780     2.4942 H       
  54 H54            0.5368     3.0610     0.4698 H       
  55 H55            1.0534    -2.3127    -1.9658 H       
  56 H56            0.8865    -3.8261    -1.0439 H       
  57 H57           -3.6418    -3.4781    -1.1753 H       
  58 H58           -3.1820    -1.7956    -0.8033 H       
  59 H59           -4.6607    -2.0038    -2.8420 H       
  60 H60           -3.0867    -1.2447    -3.1829 H       
  61 H61           -1.6626    -4.1624    -4.8061 H       
  62 H62           -1.3731    -2.4785    -4.3055 H       
  63 H63           -0.1762    -3.9539    -2.7775 H       
  64 H64           -1.6570    -4.9008    -2.4753 H       
  65 H65           -3.6032    -1.9175    -5.5020 H       
  66 H66           -2.4130    -3.9052    -6.3493 H       
  67 H67           -3.7727    -4.9455    -5.8596 H       
  68 H68           -3.9034    -2.6713    -7.8921 H       
  69 H69           -3.9046    -4.4099    -8.2729 H       
  70 H70           -5.7873    -1.6919    -6.7479 H       
  71 H71           -7.1721    -2.7111    -6.2886 H       
  72 H72           -5.7527    -3.9161    -4.6572 H       
  73 H73           -5.7550    -2.1677    -4.3198 H       
  74 H74           -6.2344    -2.5463    -8.9975 H       
  75 H75           -5.9405    -4.2671    -9.3452 H       
  76 H76            3.5350    -1.3859    -1.9194 H       
  77 H77            5.1694    -4.0876     1.8686 H       
  78 H78            4.2522    -6.5909     3.2850 H       
  79 H79            3.8419    -8.9441     2.6928 H       
  80 H80           -0.1954    -7.9994     1.6969 H       
  81 H81           -1.9644    -5.0997     1.7566 H       
  82 H82           -1.1380    -6.3554     0.8034 H       
  83 H83           -1.6307    -6.6912     2.4805 H       
  84 H84           -7.9639    -4.8750    -8.0471 H       
  85 H85           -8.2578    -3.1542    -7.6993 H       
  86 H86           -8.4572    -2.6974   -10.1284 H       
  87 H87           -8.1633    -4.4182   -10.4761 H       
  88 H88           -9.6379    -3.9244    -9.6100 H       
  89 H89            3.2016    -0.5658    -4.1968 H       
  90 H90            1.5407    -0.9938    -4.6729 H       
  91 H91            2.2647     0.5298    -5.2410 H       
  92 H92            0.6405     0.8625    -3.3540 H       
  93 H93            2.2847     1.4186    -2.9594 H       
@<TRIPOS>BOND
   1    1   31 1
   2    2    3 ar
   3    2    7 ar
   4    3    4 ar
   5    3   46 1
   6    4    5 ar
   7    4    8 1
   8    5    6 ar
   9    5   52 1
  10    6    7 ar
  11    6   53 1
  12    7   54 1
  13    8    9 1
  14    8   10 1
  15    8   28 1
  16    9   26 2
  17    9   27 am
  18   10   11 1
  19   10   55 1
  20   10   56 1
  21   11   12 am
  22   11   13 2
  23   12   14 1
  24   12   18 1
  25   14   15 1
  26   14   57 1
  27   14   58 1
  28   15   16 1
  29   15   59 1
  30   15   60 1
  31   16   17 1
  32   16   19 1
  33   17   18 1
  34   17   61 1
  35   17   62 1
  36   18   63 1
  37   18   64 1
  38   19   20 1
  39   19   24 1
  40   19   65 1
  41   20   21 1
  42   20   66 1
  43   20   67 1
  44   21   22 1
  45   21   68 1
  46   21   69 1
  47   22   23 1
  48   22   25 1
  49   23   24 1
  50   23   70 1
  51   23   71 1
  52   24   72 1
  53   24   73 1
  54   25   44 1
  55   25   74 1
  56   25   75 1
  57   27   49 am
  58   27   29 1
  59   28   29 ar
  60   28   30 ar
  61   29   33 ar
  62   30   31 ar
  63   30   76 1
  64   31   32 ar
  65   32   33 ar
  66   32   34 1
  67   33   77 1
  68   35   36 ar
  69   35   37 ar
  70   35   49 1
  71   36   42 1
  72   36   40 ar
  73   37   38 ar
  74   37   78 1
  75   38   39 ar
  76   38   79 1
  77   39   40 ar
  78   39   41 1
  79   40   80 1
  80   42   43 1
  81   43   81 1
  82   43   82 1
  83   43   83 1
  84   44   45 1
  85   44   84 1
  86   44   85 1
  87   45   86 1
  88   45   87 1
  89   45   88 1
  90   46   48 1
  91   47   48 1
  92   47   89 1
  93   47   90 1
  94   47   91 1
  95   48   92 1
  96   48   93 1
  97   49   50 2
  98   49   51 2

#	End of record

