#	Name: ASD01918133
#	Creating user name:	WinNT
#	Creation time:	15. 06. 2019 20:10

#	Modifying user name:	WinNT
#	Modification time:	15. 06. 2019 20:10

#	Program:	/corina/corina34_cracker 3.40 0067  02.08.2006

@<TRIPOS>MOLECULE
ASD01918133
  38   41    0    0    0
SMALL
NO_CHARGES


@<TRIPOS>ATOM
   1 N1             4.8224    -0.4059    -2.1634 N.ar    
   2 C2             5.2882     0.2947    -3.1785 C.ar    
   3 C3             5.1759     1.6738    -3.2005 C.ar    
   4 C4             4.5638     2.3196    -2.1373 C.ar    
   5 C5             4.0836     1.5483    -1.0834 C.ar    
   6 C6             4.2340     0.1699    -1.1338 C.ar    
   7 O7             3.4763     2.1367    -0.0197 O.3     
   8 C8             3.4568     3.4959     0.0331 C.2     
   9 N9             2.2045     5.5114    -0.0274 N.pl3   
  10 C10            2.2750     4.1509    -0.0741 C.2     
  11 C11            4.6580     4.1969     0.2031 C.2     
  12 C12            4.6327     5.5849     0.2564 C.2     
  13 C13            3.3396     6.2630     0.1314 C.2     
  14 C14            5.8741     6.3554     0.4344 C.2     
  15 N15            5.8305     7.7016     0.4838 N.am    
  16 O16            6.9394     5.7772     0.5369 O.2     
  17 C17            1.1555     6.3883    -0.1103 C.2     
  18 C18            1.6682     7.6332    -0.0101 C.2     
  19 N19            2.9931     7.5374     0.1422 N.2     
  20 Cl20           5.7946     2.5843    -4.5428 Cl      
  21 C21            7.0019     8.4286     0.6518 C.2     
  22 S22            8.5626     7.7485     0.8082 S.3     
  23 C23            9.2611     9.3590     0.9565 C.2     
  24 C24            8.2700    10.2489     0.8759 C.2     
  25 N25            7.0716     9.7220     0.7073 N.2     
  26 C26            8.5011    11.7355     0.9640 C.3     
  27 H27            5.7640    -0.2144    -4.0036 H       
  28 H28            4.4625     3.3947    -2.1272 H       
  29 H29            3.8652    -0.4377    -0.3207 H       
  30 H30            1.3665     3.5806    -0.1999 H       
  31 H31            5.5931     3.6640     0.2921 H       
  32 H32            4.9810     8.1626     0.4020 H       
  33 H33            0.1141     6.1321    -0.2383 H       
  34 H34            1.1019     8.5523    -0.0392 H       
  35 H35           10.3084     9.5863     1.0900 H       
  36 H36            8.6772    12.1356    -0.0345 H       
  37 H37            7.6234    12.2145     1.3979 H       
  38 H38            9.3699    11.9315     1.5924 H       
@<TRIPOS>BOND
   1    1    2 ar
   2    1    6 ar
   3    2    3 ar
   4    2   27 1
   5    3    4 ar
   6    3   20 1
   7    4    5 ar
   8    4   28 1
   9    5    6 ar
  10    5    7 1
  11    6   29 1
  12    7    8 1
  13    8   11 1
  14    8   10 2
  15    9   10 1
  16    9   17 1
  17    9   13 1
  18   10   30 1
  19   11   12 2
  20   11   31 1
  21   12   13 1
  22   12   14 1
  23   13   19 2
  24   14   15 am
  25   14   16 2
  26   15   21 1
  27   15   32 1
  28   17   18 2
  29   17   33 1
  30   18   19 1
  31   18   34 1
  32   21   22 1
  33   21   25 2
  34   22   23 1
  35   23   24 2
  36   23   35 1
  37   24   25 1
  38   24   26 1
  39   26   36 1
  40   26   37 1
  41   26   38 1

#	End of record

