#	Name: ASD01901337
#	Creating user name:	WinNT
#	Creation time:	15. 06. 2019 19:53

#	Modifying user name:	WinNT
#	Modification time:	15. 06. 2019 19:53

#	Program:	/corina/corina34_cracker 3.40 0067  02.08.2006

@<TRIPOS>MOLECULE
ASD01901337
  40   43    0    0    0
SMALL
NO_CHARGES


@<TRIPOS>ATOM
   1 C1            -0.0168     1.3887     0.0097 C.ar    
   2 N2             1.1080     2.0747     0.0026 N.ar    
   3 C3             2.2854     1.4806    -0.0118 C.ar    
   4 C4             2.3879     0.1014    -0.0206 C.ar    
   5 C5             1.2342    -0.6634    -0.0136 C.ar    
   6 C6             0.0021    -0.0041     0.0020 C.ar    
   7 C7            -1.2659    -0.7755     0.0104 C.2     
   8 N8            -2.8251    -2.0985     1.1906 N.2     
   9 C9            -1.7051    -1.4181     1.1883 C.2     
  10 C10           -2.0277    -0.8691    -1.1206 C.2     
  11 N11           -3.1868    -1.5855    -1.0785 N.pl3   
  12 C12           -3.5763    -2.2001     0.0837 C.2     
  13 C13           -4.1423    -1.8583    -2.0201 C.2     
  14 C14           -5.0813    -2.6221    -1.4226 C.2     
  15 N15           -4.7235    -2.8213    -0.1505 N.2     
  16 C16           -6.3249    -3.1619    -2.0808 C.3     
  17 O17           -6.3626    -2.7404    -3.4457 O.3     
  18 C18           -7.4274    -3.1447    -4.1870 C.ar    
  19 C19           -8.4185    -3.9261    -3.6111 C.ar    
  20 C20           -7.5280    -2.7719    -5.5196 C.ar    
  21 C21           -8.6114    -3.1842    -6.2710 C.ar    
  22 C22           -9.5952    -3.9674    -5.6961 C.ar    
  23 C23           -9.4999    -4.3358    -4.3668 C.ar    
  24 C24            1.3050    -2.1687    -0.0233 C.3     
  25 H25           -0.9620     1.9110     0.0260 H       
  26 H26            3.1834     2.0805    -0.0171 H       
  27 H27            3.3577    -0.3738    -0.0330 H       
  28 H28           -1.1157    -1.3490     2.0907 H       
  29 H29           -1.7163    -0.3828    -2.0332 H       
  30 H30           -4.1445    -1.5251    -3.0474 H       
  31 H31           -6.3157    -4.2509    -2.0369 H       
  32 H32           -7.2048    -2.7846    -1.5596 H       
  33 H33           -8.3445    -4.2142    -2.5728 H       
  34 H34           -6.7602    -2.1596    -5.9689 H       
  35 H35           -8.6902    -2.8943    -7.3084 H       
  36 H36          -10.4417    -4.2881    -6.2850 H       
  37 H37          -10.2717    -4.9442    -3.9189 H       
  38 H38            1.3322    -2.5377     1.0019 H       
  39 H39            0.4279    -2.5704    -0.5309 H       
  40 H40            2.2059    -2.4867    -0.5481 H       
@<TRIPOS>BOND
   1    1    6 ar
   2    1    2 ar
   3    1   25 1
   4    2    3 ar
   5    3    4 ar
   6    3   26 1
   7    4    5 ar
   8    4   27 1
   9    5    6 ar
  10    5   24 1
  11    6    7 1
  12    7   10 2
  13    7    9 1
  14    8    9 2
  15    8   12 1
  16    9   28 1
  17   10   11 1
  18   10   29 1
  19   11   13 1
  20   11   12 1
  21   12   15 2
  22   13   14 2
  23   13   30 1
  24   14   15 1
  25   14   16 1
  26   16   17 1
  27   16   31 1
  28   16   32 1
  29   17   18 1
  30   18   20 ar
  31   18   19 ar
  32   19   23 ar
  33   19   33 1
  34   20   21 ar
  35   20   34 1
  36   21   22 ar
  37   21   35 1
  38   22   23 ar
  39   22   36 1
  40   23   37 1
  41   24   38 1
  42   24   39 1
  43   24   40 1

#	End of record

