#	Name: ASD01912146
#	Creating user name:	WinNT
#	Creation time:	15. 06. 2019 19:59

#	Modifying user name:	WinNT
#	Modification time:	15. 06. 2019 19:59

#	Program:	/corina/corina34_cracker 3.40 0067  02.08.2006

@<TRIPOS>MOLECULE
ASD01912146
  49   53    0    0    0
SMALL
NO_CHARGES


@<TRIPOS>ATOM
   1 C1            -0.0187     1.5268     0.0104 C.3     
   2 C2             0.0021    -0.0041     0.0020 C.3     
   3 C3            -1.4253    -0.5341    -0.0885 C.3     
   4 C4            -2.2570    -0.0794     1.1015 C.3     
   5 N5            -2.0047     1.3345     1.4195 N.am    
   6 C6            -0.7331     2.0006     1.2790 C.3     
   7 C7             1.3939     2.0517    -0.0002 C.2     
   8 O8             2.3340     1.8183     0.9212 O.3     
   9 N9             3.3631     2.3846     0.6188 N.2     
  10 C10            3.2043     3.0331    -0.5085 C.2     
  11 N11            1.9317     2.8168    -0.9165 N.2     
  12 C12            4.2241     3.8438    -1.2062 C.2     
  13 C13            5.5055     4.0521    -0.7909 C.2     
  14 C14            6.1243     4.8759    -1.7433 C.2     
  15 C15            5.2147     5.1467    -2.7055 C.2     
  16 N16            4.0509     4.5157    -2.3900 N.pl3   
  17 C17           -1.7669    -0.9519     2.3511 C.3     
  18 C18           -2.4220    -0.1696     3.5353 C.3     
  19 C19           -3.8476     0.0914     3.1875 C.ar    
  20 C20           -4.2401     1.0669     2.3289 C.ar    
  21 C21           -3.1284     1.9834     1.8787 C.2     
  22 O22           -3.2179     3.1950     1.9191 O.2     
  23 C23           -4.8353    -0.7136     3.7579 C.ar    
  24 C24           -6.1562    -0.5243     3.3978 C.ar    
  25 C25           -6.5242     0.4406     2.4763 C.ar    
  26 C26           -5.5502     1.2589     1.9226 C.ar    
  27 C27            7.5472     5.3705    -1.7005 C.3     
  28 H28           -0.5504     1.8901    -0.8690 H       
  29 H29            0.5746    -0.3546    -0.8567 H       
  30 H30            0.4662    -0.3659     0.9195 H       
  31 H31           -1.8849    -0.1678    -1.0065 H       
  32 H32           -1.4011    -1.6235    -0.1122 H       
  33 H33           -3.3171    -0.2381     0.9035 H       
  34 H34           -0.1120     1.7783     2.1467 H       
  35 H35           -0.8945     3.0770     1.2211 H       
  36 H36            5.9602     3.6564     0.1052 H       
  37 H37            5.3843     5.7573    -3.5801 H       
  38 H38            3.2335     4.5418    -2.9116 H       
  39 H39           -2.1503    -1.9706     2.2935 H       
  40 H40           -0.6799    -0.9474     2.4311 H       
  41 H41           -2.3688    -0.7675     4.4452 H       
  42 H42           -1.9007     0.7759     3.6847 H       
  43 H43           -4.5696    -1.4776     4.4736 H       
  44 H44           -6.9190    -1.1440     3.8456 H       
  45 H45           -7.5595     0.5555     2.1911 H       
  46 H46           -5.8048     2.0193     1.1992 H       
  47 H47            8.1950     4.6582    -2.2115 H       
  48 H48            7.6102     6.3393    -2.1961 H       
  49 H49            7.8656     5.4719    -0.6630 H       
@<TRIPOS>BOND
   1    1    2 1
   2    1    7 1
   3    1    6 1
   4    1   28 1
   5    2    3 1
   6    2   29 1
   7    2   30 1
   8    3    4 1
   9    3   31 1
  10    3   32 1
  11    4    5 1
  12    4   17 1
  13    4   33 1
  14    5    6 1
  15    5   21 am
  16    6   34 1
  17    6   35 1
  18    7    8 1
  19    7   11 2
  20    8    9 1
  21    9   10 2
  22   10   11 1
  23   10   12 1
  24   12   13 2
  25   12   16 1
  26   13   14 1
  27   13   36 1
  28   14   15 2
  29   14   27 1
  30   15   16 1
  31   15   37 1
  32   16   38 1
  33   17   18 1
  34   17   39 1
  35   17   40 1
  36   18   19 1
  37   18   41 1
  38   18   42 1
  39   19   20 ar
  40   19   23 ar
  41   20   21 1
  42   20   26 ar
  43   21   22 2
  44   23   24 ar
  45   23   43 1
  46   24   25 ar
  47   24   44 1
  48   25   26 ar
  49   25   45 1
  50   26   46 1
  51   27   47 1
  52   27   48 1
  53   27   49 1

#	End of record

