#	Name: ASD01901059
#	Creating user name:	WinNT
#	Creation time:	15. 06. 2019 19:53

#	Modifying user name:	WinNT
#	Modification time:	15. 06. 2019 19:53

#	Program:	/corina/corina34_cracker 3.40 0067  02.08.2006

@<TRIPOS>MOLECULE
ASD01901059
  28   30    0    0    0
SMALL
NO_CHARGES


@<TRIPOS>ATOM
   1 C1            -0.0716     1.4898    -0.0159 C.ar    
   2 C2            -0.0912     0.1073     0.0058 C.ar    
   3 C3             1.1135    -0.5854     0.0253 C.ar    
   4 C4             2.2846     0.1408     0.0221 C.ar    
   5 C5             2.2403     1.5350    -0.0002 C.ar    
   6 N6             1.0635     2.1564    -0.0183 N.ar    
   7 C7             3.7421    -0.2450     0.0380 C.3     
   8 C8             4.5057     1.0588     0.0226 C.2     
   9 C9             3.6248     2.0546     0.0009 C.2     
  10 N10            3.9619     3.4093    -0.0182 N.pl3   
  11 C11            3.5100     4.2276    -1.0581 C.ar    
  12 C12            3.7172     5.5998    -1.0034 C.ar    
  13 C13            2.8584     3.6685    -2.1501 C.ar    
  14 C14            2.4127     4.4793    -3.1765 C.ar    
  15 C15            2.6162     5.8490    -3.1167 C.ar    
  16 C16            3.2701     6.4068    -2.0316 C.ar    
  17 Cl17           1.5981     3.7819    -4.5418 Cl      
  18 F18            2.1803     6.6403    -4.1212 F       
  19 H19           -1.0050     2.0327    -0.0357 H       
  20 H20           -1.0299    -0.4269     0.0079 H       
  21 H21            1.1313    -1.6651     0.0428 H       
  22 H22            3.9735    -0.8067     0.9430 H       
  23 H23            3.9856    -0.8350    -0.8455 H       
  24 H24            5.5806     1.1636     0.0285 H       
  25 H25            4.5096     3.7829     0.6899 H       
  26 H26            4.2273     6.0358    -0.1572 H       
  27 H27            2.7005     2.6011    -2.1970 H       
  28 H28            3.4272     7.4743    -1.9869 H       
@<TRIPOS>BOND
   1    1    2 ar
   2    1    6 ar
   3    1   19 1
   4    2    3 ar
   5    2   20 1
   6    3    4 ar
   7    3   21 1
   8    4    5 ar
   9    4    7 1
  10    5    6 ar
  11    5    9 1
  12    7    8 1
  13    7   22 1
  14    7   23 1
  15    8    9 2
  16    8   24 1
  17    9   10 1
  18   10   11 1
  19   10   25 1
  20   11   12 ar
  21   11   13 ar
  22   12   16 ar
  23   12   26 1
  24   13   14 ar
  25   13   27 1
  26   14   15 ar
  27   14   17 1
  28   15   16 ar
  29   15   18 1
  30   16   28 1

#	End of record

