#	Name: ASD08151026
#	Creating user name:	WinNT
#	Creation time:	15. 06. 2019 21:17

#	Modifying user name:	WinNT
#	Modification time:	15. 06. 2019 21:17

#	Program:	/corina/corina34_cracker 3.40 0067  02.08.2006

@<TRIPOS>MOLECULE
ASD08151026
  34   36    0    0    0
SMALL
NO_CHARGES


@<TRIPOS>ATOM
   1 C1            -0.0574     1.8675     0.0322 C.3     
   2 C2            -0.5067     1.5926    -1.4043 C.3     
   3 N3             4.2025     2.4439     2.3707 N.ar    
   4 C4             5.4813     2.7352     2.3822 C.ar    
   5 C5             6.1617     3.0902     1.2199 C.ar    
   6 C6             5.4952     3.1408     0.0287 C.ar    
   7 C7             4.1225     2.8267     0.0216 C.ar    
   8 C8             3.3737     2.8582    -1.1658 C.ar    
   9 C9             2.0463     2.5509    -1.1431 C.ar    
  10 C10            1.4119     2.2021     0.0436 C.ar    
  11 C11            2.1136     2.1591     1.2351 C.ar    
  12 C12            3.4938     2.4743     1.2404 C.ar    
  13 C13            0.9521     0.4897     2.6855 C.ar    
  14 C14            1.4270     1.7870     2.4941 C.ar    
  15 C15            1.2450     2.7305     3.5096 C.ar    
  16 C16            0.5967     2.3316     4.6683 C.ar    
  17 C17            0.1548     1.0235     4.7805 C.ar    
  18 N18            0.3422     0.1566     3.8041 N.ar    
  19 F19            0.3985     3.2086     5.6767 F       
  20 N20           -0.8213     2.9981     0.5763 N.3     
  21 H21           -0.2333     0.9824     0.6436 H       
  22 H22            0.1317     0.8265    -1.8443 H       
  23 H23           -1.5404     1.2468    -1.4018 H       
  24 H24           -0.4314     2.5087    -1.9901 H       
  25 H25            6.0205     2.6993     3.3173 H       
  26 H26            7.2150     3.3256     1.2604 H       
  27 H27            6.0066     3.4143    -0.8823 H       
  28 H28            3.8496     3.1273    -2.0972 H       
  29 H29            1.4786     2.5779    -2.0614 H       
  30 H30            1.0821    -0.2477     1.9072 H       
  31 H31            1.6005     3.7437     3.3945 H       
  32 H32           -0.3508     0.7086     5.6814 H       
  33 H33           -0.5891     3.1587     1.5450 H       
  34 H34           -0.6750     3.8314     0.0265 H       
@<TRIPOS>BOND
   1    1    2 1
   2    1   10 1
   3    1   20 1
   4    1   21 1
   5    2   22 1
   6    2   23 1
   7    2   24 1
   8    3    4 ar
   9    3   12 ar
  10    4    5 ar
  11    4   25 1
  12    5    6 ar
  13    5   26 1
  14    6    7 ar
  15    6   27 1
  16    7    8 ar
  17    7   12 ar
  18    8    9 ar
  19    8   28 1
  20    9   10 ar
  21    9   29 1
  22   10   11 ar
  23   11   12 ar
  24   11   14 1
  25   13   14 ar
  26   13   18 ar
  27   13   30 1
  28   14   15 ar
  29   15   16 ar
  30   15   31 1
  31   16   17 ar
  32   16   19 1
  33   17   18 ar
  34   17   32 1
  35   20   33 1
  36   20   34 1

#	End of record

