#	Name: ASD01850109
#	Creating user name:	WinNT
#	Creation time:	15. 06. 2019 19:38

#	Modifying user name:	WinNT
#	Modification time:	15. 06. 2019 19:38

#	Program:	/corina/corina34_cracker 3.40 0067  02.08.2006

@<TRIPOS>MOLECULE
ASD01850109
  52   56    0    0    0
SMALL
NO_CHARGES


@<TRIPOS>ATOM
   1 C1             0.1480     1.0695    -0.1547 C.ar    
   2 C2             0.3401    -0.2956    -0.0388 C.ar    
   3 C3             1.6111    -0.8074     0.1246 C.ar    
   4 C4             2.7065     0.0539     0.1730 C.ar    
   5 C5             2.5003     1.4355     0.0731 C.ar    
   6 C6             1.2293     1.9327    -0.0986 C.ar    
   7 C7             4.1586    -0.1876     0.3122 C.2     
   8 N8             4.8249     0.9541     0.1447 N.am    
   9 C9             3.8526     2.0696     0.2176 C.3     
  10 C10            6.0895     1.6476    -0.1636 C.3     
  11 C11            5.6437     2.7487    -1.1571 C.3     
  12 N12            4.1999     2.9496    -0.9036 N.am    
  13 C13            3.3694     3.7755    -1.5703 C.2     
  14 C14            3.9066     4.6933    -2.5958 C.ar    
  15 C15            3.0728     5.6403    -3.1938 C.ar    
  16 C16            3.5792     6.4959    -4.1519 C.ar    
  17 C17            4.9148     6.4157    -4.5206 C.ar    
  18 C18            5.7472     5.4760    -3.9289 C.ar    
  19 C19            5.2510     4.6201    -2.9658 C.ar    
  20 O20            2.1782     3.7653    -1.3277 O.2     
  21 C21            3.9648     2.7920     1.5354 C.ar    
  22 O22            4.6684    -1.2663     0.5446 O.2     
  23 F23            5.4059     7.2547    -5.4588 F       
  24 F24            2.7733     7.4123    -4.7315 F       
  25 C25            4.3670     2.1067     2.6666 C.ar    
  26 C26            4.4704     2.7666     3.8775 C.ar    
  27 C27            4.1721     4.1127     3.9594 C.ar    
  28 C28            3.7686     4.8029     2.8253 C.ar    
  29 C29            3.6711     4.1400     1.6108 C.ar    
  30 F30            7.0464     5.4022    -4.2921 F       
  31 C31            4.2841     4.8310     5.2794 C.3     
  32 O32            3.4741     6.1273     2.9034 O.3     
  33 C33            3.0655     6.7733     1.6960 C.3     
  34 H34           -0.8481     1.4630    -0.2938 H       
  35 H35           -0.5080    -0.9632    -0.0759 H       
  36 H36            1.7571    -1.8737     0.2152 H       
  37 H37            1.0746     2.9977    -0.1906 H       
  38 H38            6.5168     2.0896     0.7365 H       
  39 H39            6.7984     0.9666    -0.6346 H       
  40 H40            6.1917     3.6717    -0.9678 H       
  41 H41            5.8038     2.4180    -2.1833 H       
  42 H42            2.0333     5.7032    -2.9077 H       
  43 H43            5.8995     3.8892    -2.5059 H       
  44 H44            4.6004     1.0540     2.6047 H       
  45 H45            4.7845     2.2289     4.7599 H       
  46 H46            3.3573     4.6750     0.7267 H       
  47 H47            5.2909     5.2341     5.3894 H       
  48 H48            3.5609     5.6459     5.3121 H       
  49 H49            4.0815     4.1327     6.0914 H       
  50 H50            3.8601     6.6933     0.9542 H       
  51 H51            2.1633     6.2946     1.3152 H       
  52 H52            2.8613     7.8249     1.8977 H       
@<TRIPOS>BOND
   1    1    2 ar
   2    1    6 ar
   3    1   34 1
   4    2    3 ar
   5    2   35 1
   6    3    4 ar
   7    3   36 1
   8    4    5 ar
   9    4    7 1
  10    5    6 ar
  11    5    9 1
  12    6   37 1
  13    7    8 am
  14    7   22 2
  15    8    9 1
  16    8   10 1
  17    9   21 1
  18    9   12 1
  19   10   11 1
  20   10   38 1
  21   10   39 1
  22   11   12 1
  23   11   40 1
  24   11   41 1
  25   12   13 am
  26   13   14 1
  27   13   20 2
  28   14   15 ar
  29   14   19 ar
  30   15   16 ar
  31   15   42 1
  32   16   17 ar
  33   16   24 1
  34   17   18 ar
  35   17   23 1
  36   18   19 ar
  37   18   30 1
  38   19   43 1
  39   21   25 ar
  40   21   29 ar
  41   25   26 ar
  42   25   44 1
  43   26   27 ar
  44   26   45 1
  45   27   28 ar
  46   27   31 1
  47   28   29 ar
  48   28   32 1
  49   29   46 1
  50   31   47 1
  51   31   48 1
  52   31   49 1
  53   32   33 1
  54   33   50 1
  55   33   51 1
  56   33   52 1

#	End of record

