#	Name: ASD02320024
#	Creating user name:	WinNT
#	Creation time:	15. 06. 2019 20:20

#	Modifying user name:	WinNT
#	Modification time:	15. 06. 2019 20:20

#	Program:	/corina/corina34_cracker 3.40 0067  02.08.2006

@<TRIPOS>MOLECULE
ASD02320024
  59   61    0    0    0
SMALL
NO_CHARGES


@<TRIPOS>ATOM
   1 C1            -1.2238    -1.3668    -1.3444 C.ar    
   2 C2            -1.4813    -2.2694    -0.3170 C.ar    
   3 C3            -2.5047    -2.0120     0.5769 C.ar    
   4 C4            -3.2744    -0.8628     0.4563 C.ar    
   5 C5            -3.0280     0.0260    -0.5667 C.ar    
   6 C6            -1.9929    -0.2238    -1.4599 C.ar    
   7 C7            -4.3559    -0.6318     1.4820 C.3     
   8 N8            -5.2242     0.4669     1.0463 N.am    
   9 C9            -4.5723     1.6711     0.5057 C.3     
  10 C10           -3.8431     1.2751    -0.7771 C.3     
  11 C11           -6.5660     0.3775     1.1367 C.2     
  12 C12           -7.2072    -0.9138     1.5753 C.3     
  13 O13           -7.2573     1.3363     0.8652 O.2     
  14 C14           -8.7052    -0.7501     1.5929 C.ar    
  15 C15           -9.4370    -0.9366     0.4293 C.ar    
  16 C16           -9.3501    -0.4201     2.7688 C.ar    
  17 C17          -10.7290    -0.2695     2.7850 C.ar    
  18 C18          -11.4599    -0.4503     1.6205 C.ar    
  19 C19          -10.8155    -0.7859     0.4455 C.ar    
  20 O20           -0.7319    -3.3974    -0.1931 O.3     
  21 S21            0.4996    -3.2291     0.6854 S.o2    
  22 O22            1.2602    -4.4209     0.5429 O.2     
  23 O23            1.0196    -1.9369     0.4041 O.2     
  24 O24            0.0212    -3.1947     2.1299 O.3     
  25 Na25          -0.5085    -4.9727     2.8497 Du      
  26 O26           -0.2171    -1.6052    -2.2272 O.3     
  27 S27           -0.6441    -2.3995    -3.4533 S.o2    
  28 O28            0.5478    -2.7269    -4.1543 O.2     
  29 O29           -1.5701    -3.3758    -2.9965 O.2     
  30 O30           -1.4259    -1.4534    -4.3532 O.3     
  31 Na31          -0.2905    -0.1466    -5.3347 Du      
  32 C32           -5.6110     2.7190     0.1989 C.2     
  33 O33           -6.3847     2.5536    -0.7142 O.2     
  34 O34           -5.6766     3.8362     0.9402 O.3     
  35 Na35          -7.0819     5.1597     0.4570 Du      
  36 O36           -8.8026    -1.2665    -0.7274 O.3     
  37 S37           -8.6572    -2.7655    -0.9477 S.o2    
  38 O38           -7.8099    -2.9246    -2.0774 O.2     
  39 O39           -8.3718    -3.3321     0.3238 O.2     
  40 O40          -10.0238    -3.2953    -1.3574 O.3     
  41 Na41         -10.5340    -2.8565    -3.2302 Du      
  42 O42          -11.3639     0.0550     3.9429 O.3     
  43 S43          -11.5090     1.5529     4.1705 S.o2    
  44 O44          -12.0013     1.7117     5.4940 O.2     
  45 O45          -10.3016     2.1470     3.7139 O.2     
  46 O46          -12.6088     2.0454     3.2409 O.3     
  47 Na47         -14.4462     1.5640     3.8344 Du      
  48 H48           -2.7070    -2.7107     1.3752 H       
  49 H49           -1.7934     0.4769    -2.2572 H       
  50 H50           -4.9486    -1.5396     1.5947 H       
  51 H51           -3.8999    -0.3762     2.4385 H       
  52 H52           -3.8577     2.0605     1.2308 H       
  53 H53           -3.1825     2.0876    -1.0794 H       
  54 H54           -4.5749     1.0970    -1.5650 H       
  55 H55           -6.9367    -1.7083     0.8799 H       
  56 H56           -6.8581    -1.1716     2.5752 H       
  57 H57           -8.7808    -0.2797     3.6758 H       
  58 H58          -12.5335    -0.3334     1.6332 H       
  59 H59          -11.3848    -0.9267    -0.4615 H       
@<TRIPOS>BOND
   1    1    2 ar
   2    1   26 1
   3    1    6 ar
   4    2    3 ar
   5    2   20 1
   6    3    4 ar
   7    3   48 1
   8    4    5 ar
   9    4    7 1
  10    5    6 ar
  11    5   10 1
  12    6   49 1
  13    7    8 1
  14    7   50 1
  15    7   51 1
  16    8    9 1
  17    8   11 am
  18    9   10 1
  19    9   32 1
  20    9   52 1
  21   10   53 1
  22   10   54 1
  23   11   12 1
  24   11   13 2
  25   12   14 1
  26   12   55 1
  27   12   56 1
  28   14   15 ar
  29   14   16 ar
  30   15   36 1
  31   15   19 ar
  32   16   17 ar
  33   16   57 1
  34   17   18 ar
  35   17   42 1
  36   18   19 ar
  37   18   58 1
  38   19   59 1
  39   20   21 1
  40   21   22 2
  41   21   23 2
  42   21   24 1
  43   24   25 1
  44   26   27 1
  45   27   28 2
  46   27   29 2
  47   27   30 1
  48   30   31 1
  49   32   33 2
  50   32   34 1
  51   34   35 1
  52   36   37 1
  53   37   38 2
  54   37   39 2
  55   37   40 1
  56   40   41 1
  57   42   43 1
  58   43   44 2
  59   43   45 2
  60   43   46 1
  61   46   47 1

#	End of record

