#	Name: ASD01351003
#	Creating user name:	WinNT
#	Creation time:	15. 06. 2019 19:16

#	Modifying user name:	WinNT
#	Modification time:	15. 06. 2019 19:16

#	Program:	/corina/corina34_cracker 3.40 0067  02.08.2006

@<TRIPOS>MOLECULE
ASD01351003
  78   80    0    0    0
SMALL
NO_CHARGES


@<TRIPOS>ATOM
   1 C1             0.0026     1.8151    -0.1364 C.3     
   2 C2            -0.1726     0.3009    -0.2559 C.3     
   3 C3             1.4937     2.1401    -0.0026 C.3     
   4 C4            -0.5471     2.4887    -1.3973 C.3     
   5 N5            -0.7088     2.3266     1.0344 N.am    
   6 C6             0.1881    -0.3586     1.0485 C.ar    
   7 C7             1.6759     3.6547     0.1112 C.3     
   8 N8             2.0292     1.4921     1.1973 N.am    
   9 C9            -0.3660     4.0035    -1.2853 C.3     
  10 C10           -0.7386     1.6328     2.1897 C.2     
  11 C11           -0.0939     0.3031     2.2467 C.ar    
  12 C12            0.7889    -1.5975     1.0746 C.ar    
  13 C13            1.1218     4.3311    -1.1443 C.3     
  14 C14            2.7837     0.2418     1.0798 C.3     
  15 C15            1.8277     2.0462     2.4093 C.2     
  16 O16           -1.2879     2.0938     3.1712 O.2     
  17 C17            0.2324    -0.2891     3.4631 C.ar    
  18 C18            1.1118    -2.1833     2.2872 C.ar    
  19 C19            4.2697     0.5580     0.8987 C.3     
  20 O20            1.1993     3.0789     2.5070 O.2     
  21 C21            0.8354    -1.5320     3.4760 C.ar    
  22 N22            5.0262    -0.6957     0.7808 N.3     
  23 H23           -1.1668     3.1799     0.9788 H       
  24 C24            6.4130    -0.4372     0.3711 C.3     
  25 C25            4.9814    -1.4576     2.0360 C.3     
  26 C26            2.3040     1.3759    13.6366 C.3     
  27 C27            1.7894     2.0875    12.3837 C.3     
  28 C28            2.3239     1.3776    11.1382 C.3     
  29 C29            1.8092     2.0892     9.8853 C.3     
  30 C30            2.3437     1.3792     8.6398 C.3     
  31 C31            1.8291     2.0908     7.3869 C.3     
  32 C32            2.3635     1.3809     6.1414 C.3     
  33 C33            1.8489     2.0925     4.8885 C.3     
  34 C34            2.3833     1.3826     3.6430 C.3     
  35 H35           -1.2100     0.0744    -0.5018 H       
  36 H36            0.4769    -0.0779    -1.0452 H       
  37 H37            2.0257     1.7750    -0.8811 H       
  38 H38           -0.0072     2.1217    -2.2702 H       
  39 H39           -1.6069     2.2561    -1.5011 H       
  40 H40            1.1401     4.0202     0.9873 H       
  41 H41            2.7362     3.8866     0.2110 H       
  42 H42           -0.7603     4.4837    -2.1809 H       
  43 H43           -0.9031     4.3699    -0.4105 H       
  44 H44            1.0076    -2.1119     0.1505 H       
  45 H45            1.2501     5.4104    -1.0622 H       
  46 H46            1.6587     3.9669    -2.0202 H       
  47 H47            2.6460    -0.3519     1.9834 H       
  48 H48            2.4240    -0.3199     0.2176 H       
  49 H49            0.0161     0.2197     4.3908 H       
  50 H50            1.5825    -3.1552     2.3050 H       
  51 H51            4.4073     1.1517    -0.0050 H       
  52 H52            4.6293     1.1197     1.7608 H       
  53 H53            1.0914    -1.9966     4.4167 H       
  54 H54            6.8991     0.1959     1.1134 H       
  55 H55            6.9505    -1.3821     0.2915 H       
  56 H56            6.4184     0.0664    -0.5955 H       
  57 H57            3.9460    -1.6958     2.2797 H       
  58 H58            5.5492    -2.3809     1.9211 H       
  59 H59            5.4157    -0.8615     2.8386 H       
  60 H60            1.9233     1.8817    14.5239 H       
  61 H61            1.9616     0.3411    13.6332 H       
  62 H62            3.3938     1.3980    13.6452 H       
  63 H63            0.6997     2.0654    12.3750 H       
  64 H64            2.1318     3.1223    12.3871 H       
  65 H65            3.4136     1.3997    11.1468 H       
  66 H66            1.9815     0.3428    11.1347 H       
  67 H67            0.7195     2.0671     9.8766 H       
  68 H68            2.1516     3.1240     9.8887 H       
  69 H69            3.4334     1.4013     8.6484 H       
  70 H70            2.0013     0.3444     8.6363 H       
  71 H71            0.7393     2.0687     7.3782 H       
  72 H72            2.1715     3.1257     7.3903 H       
  73 H73            3.4532     1.4030     6.1500 H       
  74 H74            2.0211     0.3461     6.1379 H       
  75 H75            0.7591     2.0704     4.8798 H       
  76 H76            2.1913     3.1273     4.8919 H       
  77 H77            2.0776     0.3365     3.6617 H       
  78 H78            3.4715     1.4429     3.6292 H       
@<TRIPOS>BOND
   1    1    2 1
   2    1    3 1
   3    1    4 1
   4    1    5 1
   5    2    6 1
   6    2   35 1
   7    2   36 1
   8    3    7 1
   9    3    8 1
  10    3   37 1
  11    4    9 1
  12    4   38 1
  13    4   39 1
  14    5   10 am
  15    5   23 1
  16    6   11 ar
  17    6   12 ar
  18    7   13 1
  19    7   40 1
  20    7   41 1
  21    8   14 1
  22    8   15 am
  23    9   13 1
  24    9   42 1
  25    9   43 1
  26   10   16 2
  27   10   11 1
  28   11   17 ar
  29   12   18 ar
  30   12   44 1
  31   13   45 1
  32   13   46 1
  33   14   19 1
  34   14   47 1
  35   14   48 1
  36   15   34 1
  37   15   20 2
  38   17   21 ar
  39   17   49 1
  40   18   21 ar
  41   18   50 1
  42   19   22 1
  43   19   51 1
  44   19   52 1
  45   21   53 1
  46   22   24 1
  47   22   25 1
  48   24   54 1
  49   24   55 1
  50   24   56 1
  51   25   57 1
  52   25   58 1
  53   25   59 1
  54   26   27 1
  55   26   60 1
  56   26   61 1
  57   26   62 1
  58   27   28 1
  59   27   63 1
  60   27   64 1
  61   28   29 1
  62   28   65 1
  63   28   66 1
  64   29   30 1
  65   29   67 1
  66   29   68 1
  67   30   31 1
  68   30   69 1
  69   30   70 1
  70   31   32 1
  71   31   71 1
  72   31   72 1
  73   32   33 1
  74   32   73 1
  75   32   74 1
  76   33   34 1
  77   33   75 1
  78   33   76 1
  79   34   77 1
  80   34   78 1

#	End of record

