#	Name: ASD01883415
#	Creating user name:	WinNT
#	Creation time:	15. 06. 2019 19:46

#	Modifying user name:	WinNT
#	Modification time:	15. 06. 2019 19:46

#	Program:	/corina/corina34_cracker 3.40 0067  02.08.2006

@<TRIPOS>MOLECULE
ASD01883415
  63   65    0    0    0
SMALL
NO_CHARGES


@<TRIPOS>ATOM
   1 N1             0.0038     1.3058     0.0348 N.am    
   2 C2            -0.8400     1.5171    -0.9925 C.2     
   3 C3            -2.0913     0.8553    -1.0252 C.2     
   4 C4            -2.4225    -0.0124     0.0251 C.2     
   5 C5            -1.5011    -0.1924     1.0696 C.2     
   6 C6            -0.3173     0.4608     1.0477 C.2     
   7 O7            -0.5274     2.2772    -1.8932 O.2     
   8 C8            -3.0014     1.0685    -2.1100 C.1     
   9 N9            -3.7233     1.2377    -2.9706 N.1     
  10 C10            1.2956     1.9964     0.0573 C.3     
  11 C11            1.1459     3.3348     0.7833 C.3     
  12 C12            2.4951     4.0560     0.8068 C.3     
  13 C13            2.9067     4.4146    -0.6225 C.3     
  14 C14           -3.5664    -2.0870    -0.0870 C.3     
  15 O15           -3.6076    -0.6636     0.0325 O.3     
  16 C16            2.3756     5.3343     1.6390 C.3     
  17 C17           -4.9918    -2.6425    -0.0593 C.3     
  18 C18           -4.9575    -4.1523    -0.3120 C.3     
  19 C19           -6.3790    -4.7120    -0.2227 C.3     
  20 N20           -6.9338    -4.4327     1.1079 N.3     
  21 C21           -7.0205    -2.9877     1.3545 C.3     
  22 C22           -5.6181    -2.3766     1.3123 C.3     
  23 C23           -8.2438    -5.0753     1.2776 C.3     
  24 C24           -8.6685    -4.9771     2.7202 C.ar    
  25 C25           -9.4043    -3.8895     3.1515 C.ar    
  26 C26           -9.7938    -3.7994     4.4750 C.ar    
  27 C27           -9.4477    -4.7971     5.3667 C.ar    
  28 C28           -8.7124    -5.8854     4.9351 C.ar    
  29 C29           -8.3267    -5.9777     3.6110 C.ar    
  30 C30          -10.5954    -2.6131     4.9454 C.3     
  31 F31          -11.9601    -2.8875     4.8060 F       
  32 F32          -10.3059    -2.3585     6.2902 F       
  33 F33          -10.2642    -1.4921     4.1767 F       
  34 H34           -1.7364    -0.8560     1.8886 H       
  35 H35            0.3832     0.3140     1.8564 H       
  36 H36            2.0280     1.3801     0.5789 H       
  37 H37            1.6311     2.1729    -0.9646 H       
  38 H38            0.4136     3.9511     0.2617 H       
  39 H39            0.8104     3.1584     1.8052 H       
  40 H40            3.2481     3.4037     1.2489 H       
  41 H41            3.8678     4.9284    -0.6058 H       
  42 H42            2.9917     3.5039    -1.2154 H       
  43 H43            2.1536     5.0669    -1.0647 H       
  44 H44           -3.0887    -2.3589    -1.0282 H       
  45 H45           -2.9974    -2.5050     0.7434 H       
  46 H46            2.0824     5.0789     2.6573 H       
  47 H47            3.3368     5.8481     1.6557 H       
  48 H48            1.6226     5.9867     1.1969 H       
  49 H49           -5.5869    -2.1572    -0.8329 H       
  50 H50           -4.5518    -4.3461    -1.3049 H       
  51 H51           -4.3295    -4.6327     0.4384 H       
  52 H52           -7.0030    -4.2412    -0.9824 H       
  53 H53           -6.3563    -5.7891    -0.3880 H       
  54 H54           -7.6415    -2.5250     0.5874 H       
  55 H55           -7.4637    -2.8125     2.3348 H       
  56 H56           -5.0005    -2.8290     2.0883 H       
  57 H57           -5.6844    -1.3016     1.4799 H       
  58 H58           -8.9787    -4.5741     0.6476 H       
  59 H59           -8.1739    -6.1244     0.9900 H       
  60 H60           -9.6748    -3.1100     2.4547 H       
  61 H61           -9.7514    -4.7264     6.4007 H       
  62 H62           -8.4417    -6.6649     5.6319 H       
  63 H63           -7.7523    -6.8278     3.2739 H       
@<TRIPOS>BOND
   1    1    2 am
   2    1   10 1
   3    1    6 1
   4    2    3 1
   5    2    7 2
   6    3    4 2
   7    3    8 1
   8    4    5 1
   9    4   15 1
  10    5    6 2
  11    5   34 1
  12    6   35 1
  13    8    9 3
  14   10   11 1
  15   10   36 1
  16   10   37 1
  17   11   12 1
  18   11   38 1
  19   11   39 1
  20   12   13 1
  21   12   16 1
  22   12   40 1
  23   13   41 1
  24   13   42 1
  25   13   43 1
  26   14   15 1
  27   14   17 1
  28   14   44 1
  29   14   45 1
  30   16   46 1
  31   16   47 1
  32   16   48 1
  33   17   18 1
  34   17   22 1
  35   17   49 1
  36   18   19 1
  37   18   50 1
  38   18   51 1
  39   19   20 1
  40   19   52 1
  41   19   53 1
  42   20   21 1
  43   20   23 1
  44   21   22 1
  45   21   54 1
  46   21   55 1
  47   22   56 1
  48   22   57 1
  49   23   24 1
  50   23   58 1
  51   23   59 1
  52   24   25 ar
  53   24   29 ar
  54   25   26 ar
  55   25   60 1
  56   26   27 ar
  57   26   30 1
  58   27   28 ar
  59   27   61 1
  60   28   29 ar
  61   28   62 1
  62   29   63 1
  63   30   31 1
  64   30   32 1
  65   30   33 1

#	End of record

