#	Name: ASD03330993
#	Creating user name:	WinNT
#	Creation time:	15. 06. 2019 20:38

#	Modifying user name:	WinNT
#	Modification time:	15. 06. 2019 20:38

#	Program:	/corina/corina34_cracker 3.40 0067  02.08.2006

@<TRIPOS>MOLECULE
ASD03330993
  68   71    0    0    0
SMALL
NO_CHARGES


@<TRIPOS>ATOM
   1 N1            -0.8199     1.7207    -0.3869 N.pl3   
   2 C2            -0.6628     0.4005    -0.1010 C.2     
   3 C3             0.6361    -0.2702     0.2628 C.3     
   4 N4             1.3238     0.5335     1.2855 N.3     
   5 C5             2.1873     1.5448     0.6730 C.3     
   6 C6             1.5857     2.0586    -0.6318 C.3     
   7 C7             0.2397     2.7327    -0.3521 C.3     
   8 C8            -2.1345     1.9185    -0.6950 C.2     
   9 N9            -2.7669     0.7734    -0.5867 N.2     
  10 C10           -1.8869    -0.1838    -0.2186 C.2     
  11 C11           -2.1966    -1.6055     0.0135 C.2     
  12 O12           -1.3137    -2.3744     0.3430 O.2     
  13 N13           -3.4584    -2.0540    -0.1393 N.am    
  14 C14            2.0858    -0.3234     2.2037 C.3     
  15 C15           -4.9954    -3.8485    -0.6928 C.2     
  16 C16           -3.7663    -3.4676     0.0915 C.3     
  17 C17           -4.0213    -3.6972     1.5825 C.3     
  18 C18           -4.4341    -5.1526     1.8111 C.3     
  19 O19           -5.8386    -3.0131    -0.9423 O.2     
  20 O20           -5.0720    -7.2891    -2.8003 O.3     
  21 C21           -6.0183    -6.2577    -3.0912 C.3     
  22 C22           -6.3961    -5.5381    -1.7915 C.3     
  23 N23           -5.1577    -5.1174    -1.1171 N.am    
  24 C24           -4.1015    -6.1229    -0.9201 C.3     
  25 C25           -3.8356    -6.8140    -2.2623 C.3     
  26 C26           -2.7438    -3.3997     2.3702 C.3     
  27 C27           -5.1410    -2.7689     2.0573 C.3     
  28 C28           -2.7447     3.2076    -1.0853 C.ar    
  29 C29           -3.5960     3.2742    -2.1918 C.ar    
  30 C30           -4.1635     4.4816    -2.5512 C.ar    
  31 C31           -3.8895     5.6239    -1.8172 C.ar    
  32 C32           -3.0450     5.5627    -0.7187 C.ar    
  33 C33           -2.4774     4.3608    -0.3468 C.ar    
  34 F34           -4.4466     6.8021    -2.1730 F       
  35 F35           -3.8629     2.1607    -2.9087 F       
  36 Cl36          -2.7064     6.9997     0.1946 Cl      
  37 H37            0.4340    -1.2660     0.6571 H       
  38 H38            1.2662    -0.3489    -0.6232 H       
  39 H39            2.3083     2.3787     1.3644 H       
  40 H40            3.1638     1.1056     0.4686 H       
  41 H41            2.2653     2.7805    -1.0847 H       
  42 H42            1.4374     1.2233    -1.3162 H       
  43 H43            0.0461     3.4894    -1.1124 H       
  44 H44            0.2642     3.2010     0.6318 H       
  45 H45           -4.1626    -1.4409    -0.4020 H       
  46 H46            2.7832    -0.9371     1.6335 H       
  47 H47            2.6401     0.2993     2.9059 H       
  48 H48            1.3996    -0.9680     2.7529 H       
  49 H49           -2.9247    -4.0802    -0.2317 H       
  50 H50           -3.6337    -5.8137     1.4791 H       
  51 H51           -4.6223    -5.3144     2.8725 H       
  52 H52           -5.3405    -5.3664     1.2447 H       
  53 H53           -5.5770    -5.5444    -3.7873 H       
  54 H54           -6.9107    -6.6976    -3.5365 H       
  55 H55           -7.0051    -4.6634    -2.0198 H       
  56 H56           -6.9539    -6.2159    -1.1453 H       
  57 H57           -3.1911    -5.6355    -0.5714 H       
  58 H58           -4.4283    -6.8596    -0.1862 H       
  59 H59           -3.1576    -7.6541    -2.1112 H       
  60 H60           -3.3863    -6.1028    -2.9554 H       
  61 H61           -2.4497    -2.3628     2.2073 H       
  62 H62           -2.9255    -3.5632     3.4324 H       
  63 H63           -1.9461    -4.0610     2.0319 H       
  64 H64           -6.0512    -2.9808     1.4962 H       
  65 H65           -5.3227    -2.9324     3.1195 H       
  66 H66           -4.8469    -1.7320     1.8944 H       
  67 H67           -4.8215     4.5349    -3.4060 H       
  68 H68           -1.8240     4.3139     0.5117 H       
@<TRIPOS>BOND
   1    1    2 1
   2    1    7 1
   3    1    8 1
   4    2    3 1
   5    2   10 2
   6    3    4 1
   7    3   37 1
   8    3   38 1
   9    4    5 1
  10    4   14 1
  11    5    6 1
  12    5   39 1
  13    5   40 1
  14    6    7 1
  15    6   41 1
  16    6   42 1
  17    7   43 1
  18    7   44 1
  19    8    9 2
  20    8   28 1
  21    9   10 1
  22   10   11 1
  23   11   12 2
  24   11   13 am
  25   13   16 1
  26   13   45 1
  27   14   46 1
  28   14   47 1
  29   14   48 1
  30   15   19 2
  31   15   23 am
  32   15   16 1
  33   16   17 1
  34   16   49 1
  35   17   18 1
  36   17   26 1
  37   17   27 1
  38   18   50 1
  39   18   51 1
  40   18   52 1
  41   20   21 1
  42   20   25 1
  43   21   22 1
  44   21   53 1
  45   21   54 1
  46   22   23 1
  47   22   55 1
  48   22   56 1
  49   23   24 1
  50   24   25 1
  51   24   57 1
  52   24   58 1
  53   25   59 1
  54   25   60 1
  55   26   61 1
  56   26   62 1
  57   26   63 1
  58   27   64 1
  59   27   65 1
  60   27   66 1
  61   28   29 ar
  62   28   33 ar
  63   29   30 ar
  64   29   35 1
  65   30   31 ar
  66   30   67 1
  67   31   32 ar
  68   31   34 1
  69   32   33 ar
  70   32   36 1
  71   33   68 1

#	End of record

