#	Name: ASD01412097
#	Creating user name:	WinNT
#	Creation time:	15. 06. 2019 19:20

#	Modifying user name:	WinNT
#	Modification time:	15. 06. 2019 19:20

#	Program:	/corina/corina34_cracker 3.40 0067  02.08.2006

@<TRIPOS>MOLECULE
ASD01412097
  85   91    0    0    0
SMALL
NO_CHARGES


@<TRIPOS>ATOM
   1 C1             1.3345     3.8428    -2.6639 C.ar    
   2 C2             0.6970     2.5706    -2.6891 C.ar    
   3 C3            -0.5361     2.7398    -3.3453 C.2     
   4 C4            -0.6163     4.0352    -3.7014 C.2     
   5 N5             0.4840     4.7351    -3.2546 N.pl3   
   6 C6            -1.6438     4.7441    -4.5205 C.2     
   7 C7            -1.2119     5.6229    -5.4641 C.2     
   8 C8             0.2330     5.8103    -5.8197 C.3     
   9 C9             1.0151     6.6382    -4.7828 C.3     
  10 C10            0.6007     6.1800    -3.3791 C.3     
  11 C11           -1.5702     1.6737    -3.6005 C.3     
  12 C12           -0.9553     0.5600    -4.4506 C.3     
  13 C13           -2.0051    -0.5224    -4.7098 C.3     
  14 C14           -2.4800    -1.1021    -3.3758 C.3     
  15 C15           -3.0948     0.0115    -2.5258 C.3     
  16 C16           -2.0450     1.0940    -2.2666 C.3     
  17 C17            2.5912     3.9957    -2.0966 C.ar    
  18 C18            3.1846     2.8496    -1.5521 C.ar    
  19 C19            2.5447     1.6049    -1.5732 C.ar    
  20 C20            1.3070     1.4361    -2.1306 C.ar    
  21 C21            4.5218     2.9574    -0.9398 C.2     
  22 N22            5.1104     1.8666    -0.4103 N.am    
  23 O23            5.0934     4.0304    -0.9125 O.2     
  24 C24            6.4845     1.9466     0.0914 C.3     
  25 C25            6.5668     2.9506     1.2122 C.2     
  26 C26            6.9471     0.5612     0.5879 C.3     
  27 C27            7.7101    -0.0394    -0.6188 C.3     
  28 C28            8.4483     1.1906    -1.2030 C.3     
  29 C29            7.4387     2.3479    -1.0470 C.3     
  30 N30            5.5643     3.0441     2.1082 N.am    
  31 O31            7.5351     3.6745     1.3079 O.2     
  32 C32            5.5702     4.0663     3.0570 C.ar    
  33 C33            5.0274     3.8443     4.3192 C.ar    
  34 C34            5.0314     4.8498     5.2587 C.ar    
  35 C35            5.5826     6.0976     4.9432 C.ar    
  36 C36            6.1275     6.3163     3.6721 C.ar    
  37 C37            6.1239     5.3033     2.7407 C.ar    
  38 C38            5.5887     7.1746     5.9428 C.2     
  39 C39            6.1211     8.3779     5.6362 C.2     
  40 C40            6.1270     9.4170     6.6007 C.2     
  41 O41            5.6528     9.2251     7.7044 O.2     
  42 O42            6.6587    10.6187     6.2944 O.3     
  43 N43           -2.9679     4.6400    -4.4269 N.2     
  44 C44           -3.6772     5.4277    -5.1738 C.2     
  45 S45           -2.6111     6.4241    -6.1601 S.3     
  46 N46           -5.0612     5.4774    -5.1936 N.pl3   
  47 H47            0.7009     4.8299    -5.9091 H       
  48 H48            0.2930     6.3126    -6.7852 H       
  49 H49            2.0848     6.4790    -4.9189 H       
  50 H50            0.7810     7.6955    -4.9067 H       
  51 H51           -0.3609     6.6308    -3.1340 H       
  52 H52            1.3423     6.5337    -2.6628 H       
  53 H53           -2.4178     2.1089    -4.1299 H       
  54 H54           -0.6170     0.9730    -5.4009 H       
  55 H55           -0.1077     0.1248    -3.9213 H       
  56 H56           -2.8527    -0.0872    -5.2391 H       
  57 H57           -1.5671    -1.3158    -5.3154 H       
  58 H58           -3.2279    -1.8733    -3.5605 H       
  59 H59           -1.6324    -1.5374    -2.8465 H       
  60 H60           -3.9424     0.4468    -3.0551 H       
  61 H61           -3.4331    -0.4015    -1.5755 H       
  62 H62           -1.1974     0.6587    -1.7373 H       
  63 H63           -2.4831     1.8873    -1.6610 H       
  64 H64            3.0890     4.9539    -2.0759 H       
  65 H65            3.0431     0.7521    -1.1364 H       
  66 H66            0.8201     0.4721    -2.1406 H       
  67 H67            4.6242     1.0287    -0.3614 H       
  68 H68            7.6116     0.6657     1.4457 H       
  69 H69            6.0880    -0.0591     0.8431 H       
  70 H70            8.4218    -0.7959    -0.2881 H       
  71 H71            7.0143    -0.4546    -1.3479 H       
  72 H72            9.3552     1.3967    -0.6345 H       
  73 H73            8.6846     1.0295    -2.2548 H       
  74 H74            6.8795     2.4829    -1.9728 H       
  75 H75            7.9627     3.2683    -0.7892 H       
  76 H76            4.8388     2.4004     2.0932 H       
  77 H77            4.6022     2.8816     4.5616 H       
  78 H78            4.6097     4.6768     6.2378 H       
  79 H79            6.5533     7.2774     3.4242 H       
  80 H80            6.5443     5.4709     1.7601 H       
  81 H81            5.1677     7.0043     6.9226 H       
  82 H82            6.5421     8.5482     4.6563 H       
  83 H83            6.6170    11.2624     7.0149 H       
  84 H84           -5.5759     4.8914    -4.6168 H       
  85 H85           -5.5159     6.0981    -5.7843 H       
@<TRIPOS>BOND
   1    1    2 ar
   2    1   17 ar
   3    1    5 1
   4    2    3 1
   5    2   20 ar
   6    3    4 2
   7    3   11 1
   8    4    5 1
   9    4    6 1
  10    5   10 1
  11    6    7 2
  12    6   43 1
  13    7    8 1
  14    7   45 1
  15    8    9 1
  16    8   47 1
  17    8   48 1
  18    9   10 1
  19    9   49 1
  20    9   50 1
  21   10   51 1
  22   10   52 1
  23   11   12 1
  24   11   16 1
  25   11   53 1
  26   12   13 1
  27   12   54 1
  28   12   55 1
  29   13   14 1
  30   13   56 1
  31   13   57 1
  32   14   15 1
  33   14   58 1
  34   14   59 1
  35   15   16 1
  36   15   60 1
  37   15   61 1
  38   16   62 1
  39   16   63 1
  40   17   18 ar
  41   17   64 1
  42   18   19 ar
  43   18   21 1
  44   19   20 ar
  45   19   65 1
  46   20   66 1
  47   21   22 am
  48   21   23 2
  49   22   24 1
  50   22   67 1
  51   24   25 1
  52   24   26 1
  53   24   29 1
  54   25   30 am
  55   25   31 2
  56   26   27 1
  57   26   68 1
  58   26   69 1
  59   27   28 1
  60   27   70 1
  61   27   71 1
  62   28   29 1
  63   28   72 1
  64   28   73 1
  65   29   74 1
  66   29   75 1
  67   30   32 1
  68   30   76 1
  69   32   33 ar
  70   32   37 ar
  71   33   34 ar
  72   33   77 1
  73   34   35 ar
  74   34   78 1
  75   35   36 ar
  76   35   38 1
  77   36   37 ar
  78   36   79 1
  79   37   80 1
  80   38   39 2
  81   38   81 1
  82   39   40 1
  83   39   82 1
  84   40   41 2
  85   40   42 1
  86   42   83 1
  87   43   44 2
  88   44   45 1
  89   44   46 1
  90   46   84 1
  91   46   85 1

#	End of record

