#	Name: ASD01913519
#	Creating user name:	WinNT
#	Creation time:	15. 06. 2019 20:01

#	Modifying user name:	WinNT
#	Modification time:	15. 06. 2019 20:01

#	Program:	/corina/corina34_cracker 3.40 0067  02.08.2006

@<TRIPOS>MOLECULE
ASD01913519
  53   57    0    0    0
SMALL
NO_CHARGES


@<TRIPOS>ATOM
   1 C1             0.0902     1.4549     0.3151 C.ar    
   2 C2             0.0490    -0.0130     0.1344 C.2     
   3 N3            -1.0124    -0.8155     0.3819 N.pl3   
   4 N4            -0.6029    -2.1224     0.0717 N.2     
   5 C5             0.6460    -2.0459    -0.3348 C.2     
   6 N6             1.0364    -0.7669    -0.3007 N.2     
   7 C7             1.4842    -3.1921    -0.7661 C.ar    
   8 C8             2.7989    -2.9808    -1.1767 C.ar    
   9 C9             3.5748    -4.0494    -1.5765 C.ar    
  10 C10            3.0483    -5.3309    -1.5706 C.ar    
  11 C11            1.7415    -5.5454    -1.1635 C.ar    
  12 C12            0.9605    -4.4833    -0.7563 C.ar    
  13 C13           -2.3282    -0.4024     0.8761 C.3     
  14 C14           -3.2439    -0.1406    -0.2917 C.2     
  15 N15           -4.5146     0.2539    -0.0765 N.am    
  16 O16           -2.8375    -0.2848    -1.4253 O.2     
  17 F17            3.8114    -6.3744    -1.9632 F       
  18 C18           -5.4249     0.5148    -1.2018 C.3     
  19 C19            1.3155     2.1114     0.4339 C.ar    
  20 C20           -1.0961     2.1879     0.3617 C.ar    
  21 C21           -1.0523     3.5560     0.5304 C.ar    
  22 C22            0.1672     4.2027     0.6536 C.ar    
  23 C23            1.3485     3.4799     0.6022 C.ar    
  24 F24            0.2048     5.5431     0.8187 F       
  25 C25           -6.7224    -0.2669    -0.9697 C.3     
  26 N26           -7.2612     0.0673     0.3555 N.3     
  27 C27           -6.3407    -0.3436     1.4240 C.3     
  28 C28           -5.0295     0.4290     1.2901 C.3     
  29 C29           -8.5116    -0.4917     0.5369 C.2     
  30 O30           -9.1685    -1.2482    -0.3560 O.3     
  31 N31           -9.2522    -0.3766     1.6119 N.2     
  32 C32          -10.3994    -1.0561     1.4182 C.2     
  33 C33          -10.3514    -1.6005     0.1937 C.2     
  34 H34            3.2098    -1.9821    -1.1823 H       
  35 H35            4.5939    -3.8865    -1.8948 H       
  36 H36            1.3348    -6.5459    -1.1611 H       
  37 H37           -0.0580    -4.6514    -0.4388 H       
  38 H38           -2.7481    -1.1940     1.4968 H       
  39 H39           -2.2249     0.5071     1.4679 H       
  40 H40           -5.6445     1.5811    -1.2556 H       
  41 H41           -4.9610     0.1863    -2.1319 H       
  42 H42            2.2367     1.5489     0.3943 H       
  43 H43           -2.0469     1.6849     0.2654 H       
  44 H44           -1.9700     4.1244     0.5662 H       
  45 H45            2.2964     3.9884     0.6987 H       
  46 H46           -7.4500     0.0002    -1.7361 H       
  47 H47           -6.5168    -1.3361    -1.0196 H       
  48 H48           -6.7916    -0.1322     2.3937 H       
  49 H49           -6.1404    -1.4118     1.3408 H       
  50 H50           -4.3041     0.0465     2.0082 H       
  51 H51           -5.2081     1.4883     1.4747 H       
  52 H52          -11.2115    -1.1481     2.1242 H       
  53 H53          -11.1164    -2.2074    -0.2676 H       
@<TRIPOS>BOND
   1    1    2 1
   2    1   19 ar
   3    1   20 ar
   4    2    3 1
   5    2    6 2
   6    3    4 1
   7    3   13 1
   8    4    5 2
   9    5    6 1
  10    5    7 1
  11    7    8 ar
  12    7   12 ar
  13    8    9 ar
  14    8   34 1
  15    9   10 ar
  16    9   35 1
  17   10   11 ar
  18   10   17 1
  19   11   12 ar
  20   11   36 1
  21   12   37 1
  22   13   14 1
  23   13   38 1
  24   13   39 1
  25   14   15 am
  26   14   16 2
  27   15   18 1
  28   15   28 1
  29   18   25 1
  30   18   40 1
  31   18   41 1
  32   19   23 ar
  33   19   42 1
  34   20   21 ar
  35   20   43 1
  36   21   22 ar
  37   21   44 1
  38   22   23 ar
  39   22   24 1
  40   23   45 1
  41   25   26 1
  42   25   46 1
  43   25   47 1
  44   26   27 1
  45   26   29 1
  46   27   28 1
  47   27   48 1
  48   27   49 1
  49   28   50 1
  50   28   51 1
  51   29   31 2
  52   29   30 1
  53   30   33 1
  54   31   32 1
  55   32   33 2
  56   32   52 1
  57   33   53 1

#	End of record

