#	Name: ASD06140004
#	Creating user name:	WinNT
#	Creation time:	15. 06. 2019 21:05

#	Modifying user name:	WinNT
#	Modification time:	15. 06. 2019 21:05

#	Program:	/corina/corina34_cracker 3.40 0067  02.08.2006

@<TRIPOS>MOLECULE
ASD06140004
  33   35    0    0    0
SMALL
NO_CHARGES


@<TRIPOS>ATOM
   1 C1            -0.0227     1.3723    -0.0642 C.2     
   2 C2            -0.0068     0.0024    -0.1471 C.2     
   3 C3            -1.4329    -0.3526     0.0115 C.2     
   4 N4            -2.0546     0.7898     0.1572 N.2     
   5 O5            -1.2959     1.7273     0.1225 O.3     
   6 C6             1.1455    -0.8921    -0.3450 C.2     
   7 N7             1.4648    -1.3157    -1.5840 N.am    
   8 O8             1.8092    -1.2489     0.6094 O.2     
   9 C9             2.5458    -2.1549    -1.7696 C.2     
  10 S10            3.0814    -2.7885    -3.3304 S.3     
  11 C11            4.4839    -3.7429    -2.6653 C.3     
  12 C12            4.4137    -3.4662    -1.1553 C.3     
  13 N13            3.3128    -2.5851    -0.8351 N.2     
  14 C14            1.1654     2.2946    -0.1588 C.3     
  15 C15           -2.0303    -1.7099     0.0058 C.ar    
  16 C16           -1.4604    -2.7282     0.7675 C.ar    
  17 C17           -2.0205    -3.9896     0.7585 C.ar    
  18 C18           -3.1456    -4.2448    -0.0047 C.ar    
  19 C19           -3.7162    -3.2390    -0.7634 C.ar    
  20 C20           -3.1684    -1.9710    -0.7576 C.ar    
  21 Cl21          -3.8853    -0.7091    -1.7103 Cl      
  22 H22            0.9354    -1.0311    -2.3453 H       
  23 H23            4.3560    -4.8062    -2.8679 H       
  24 H24            5.4254    -3.3819    -3.0791 H       
  25 H25            4.2867    -4.4098    -0.6246 H       
  26 H26            5.3451    -3.0001    -0.8337 H       
  27 H27            1.3240     2.5771    -1.1996 H       
  28 H28            0.9794     3.1888     0.4361 H       
  29 H29            2.0519     1.7850     0.2185 H       
  30 H30           -0.5817    -2.5308     1.3636 H       
  31 H31           -1.5791    -4.7793     1.3483 H       
  32 H32           -3.5801    -5.2336    -0.0083 H       
  33 H33           -4.5942    -3.4442    -1.3579 H       
@<TRIPOS>BOND
   1    1    2 2
   2    1   14 1
   3    1    5 1
   4    2    3 1
   5    2    6 1
   6    3    4 2
   7    3   15 1
   8    4    5 1
   9    6    7 am
  10    6    8 2
  11    7    9 1
  12    7   22 1
  13    9   10 1
  14    9   13 2
  15   10   11 1
  16   11   12 1
  17   11   23 1
  18   11   24 1
  19   12   13 1
  20   12   25 1
  21   12   26 1
  22   14   27 1
  23   14   28 1
  24   14   29 1
  25   15   16 ar
  26   15   20 ar
  27   16   17 ar
  28   16   30 1
  29   17   18 ar
  30   17   31 1
  31   18   19 ar
  32   18   32 1
  33   19   20 ar
  34   19   33 1
  35   20   21 1

#	End of record

