#	Name: ASD05313043
#	Creating user name:	WinNT
#	Creation time:	15. 06. 2019 20:58

#	Modifying user name:	WinNT
#	Modification time:	15. 06. 2019 20:58

#	Program:	/corina/corina34_cracker 3.40 0067  02.08.2006

@<TRIPOS>MOLECULE
ASD05313043
  38   41    0    0    0
SMALL
NO_CHARGES


@<TRIPOS>ATOM
   1 C1            -0.0725     0.8204     1.0206 C.2     
   2 C2             0.1130    -0.6165     0.5946 C.3     
   3 N3             0.9307     1.7333     1.0467 N.pl3   
   4 N4             1.4566    -0.7171    -0.0061 N.am    
   5 C5             2.5709    -0.0356     0.6700 C.3     
   6 C6             2.3175     1.4766     0.6619 C.3     
   7 N7            -0.9036     2.6445     1.7022 N.2     
   8 N8            -1.1571     1.4123     1.4219 N.2     
   9 C9             0.3726     2.8937     1.4896 C.2     
  10 C10            1.0659     4.1840     1.6952 C.ar    
  11 C11            0.3491     5.2881     2.1571 C.ar    
  12 C12            1.0105     6.4884     2.3453 C.ar    
  13 C13            2.3708     6.5472     2.0651 C.ar    
  14 C14            3.0198     5.4111     1.6091 C.ar    
  15 N15            2.3661     4.2799     1.4438 N.ar    
  16 F16            3.0532     7.7007     2.2353 F       
  17 C17            1.6574    -1.4141    -1.1421 C.2     
  18 O18            2.7496    -1.4046    -1.6761 O.2     
  19 C19            0.5510    -2.1893    -1.7379 C.ar    
  20 C20            0.3198    -2.1369    -3.1157 C.ar    
  21 C21           -0.7155    -2.8642    -3.6664 C.ar    
  22 C22           -1.5247    -3.6450    -2.8560 C.ar    
  23 C23           -1.2996    -3.6998    -1.4888 C.ar    
  24 C24           -0.2650    -2.9823    -0.9281 C.ar    
  25 F25           -2.5371    -4.3550    -3.4002 F       
  26 Cl26           1.3325    -1.1588    -4.1313 Cl      
  27 H27            0.0430    -1.2735     1.4615 H       
  28 H28           -0.6445    -0.8872    -0.1408 H       
  29 H29            2.6418    -0.3871     1.6993 H       
  30 H30            3.5017    -0.2516     0.1457 H       
  31 H31            2.4966     1.8703    -0.3387 H       
  32 H32            2.9881     1.9624     1.3707 H       
  33 H33           -0.7076     5.2070     2.3646 H       
  34 H34            0.4819     7.3602     2.7015 H       
  35 H35            4.0765     5.4529     1.3900 H       
  36 H36           -0.8959    -2.8247    -4.7305 H       
  37 H37           -1.9339    -4.3094    -0.8623 H       
  38 H38           -0.0881    -3.0300     0.1362 H       
@<TRIPOS>BOND
   1    1    2 1
   2    1    3 1
   3    1    8 2
   4    2    4 1
   5    2   27 1
   6    2   28 1
   7    3    6 1
   8    3    9 1
   9    4    5 1
  10    4   17 am
  11    5    6 1
  12    5   29 1
  13    5   30 1
  14    6   31 1
  15    6   32 1
  16    7    8 1
  17    7    9 2
  18    9   10 1
  19   10   11 ar
  20   10   15 ar
  21   11   12 ar
  22   11   33 1
  23   12   13 ar
  24   12   34 1
  25   13   14 ar
  26   13   16 1
  27   14   15 ar
  28   14   35 1
  29   17   18 2
  30   17   19 1
  31   19   20 ar
  32   19   24 ar
  33   20   21 ar
  34   20   26 1
  35   21   22 ar
  36   21   36 1
  37   22   23 ar
  38   22   25 1
  39   23   24 ar
  40   23   37 1
  41   24   38 1

#	End of record

