#	Name: ASD01208853
#	Creating user name:	WinNT
#	Creation time:	15. 06. 2019 19:10

#	Modifying user name:	WinNT
#	Modification time:	15. 06. 2019 19:10

#	Program:	/corina/corina34_cracker 3.40 0067  02.08.2006

@<TRIPOS>MOLECULE
ASD01208853
  55   58    0    0    0
SMALL
NO_CHARGES


@<TRIPOS>ATOM
   1 C1            -0.0131     1.3866    -0.6975 C.2     
   2 C2            -0.0897    -0.0816    -0.5782 C.ar    
   3 C3             1.0565    -0.8646    -0.7711 C.ar    
   4 C4             0.9762    -2.2440    -0.6572 C.ar    
   5 C5            -0.2290    -2.8459    -0.3551 C.ar    
   6 C6            -1.3694    -2.0756    -0.1625 C.ar    
   7 C7            -1.3038    -0.6981    -0.2666 C.ar    
   8 O8             1.0464     1.9205    -0.9639 O.2     
   9 N9            -1.1187     2.1360    -0.5167 N.am    
  10 S10           -2.3651     4.5877    -0.4259 S.3     
  11 C11           -1.0466     3.5185    -0.6291 C.2     
  12 N12            0.0304     4.1861    -0.9034 N.2     
  13 C13           -0.0820     5.4995    -0.9720 C.2     
  14 C14           -1.3122     5.9637    -0.7449 C.2     
  15 O15           -2.5519    -2.6776     0.1343 O.3     
  16 C16           -2.5589    -4.0265     0.2914 C.ar    
  17 C17           -2.0784    -4.5896     1.4670 C.ar    
  18 C18           -2.0839    -5.9580     1.6301 C.ar    
  19 C19           -2.5737    -6.7787     0.6122 C.ar    
  20 C20           -3.0563    -6.2089    -0.5677 C.ar    
  21 C21           -3.0519    -4.8394    -0.7215 C.ar    
  22 O22           -3.0217    -9.1535    -0.1117 O.3     
  23 C23           -2.5809    -8.2464     0.7829 C.2     
  24 N24           -2.1585    -8.9103     1.8338 N.2     
  25 N25           -2.3167   -10.1709     1.6309 N.2     
  26 C26           -2.8417   -10.3604     0.4529 C.2     
  27 C27           -3.1848   -11.6916    -0.1645 C.3     
  28 O28            2.2418    -0.2742    -1.0691 O.3     
  29 C29            4.3464    -0.3947    -2.2509 C.3     
  30 C30            3.3391    -1.1383    -1.3715 C.3     
  31 C31            4.0196    -1.5724    -0.0718 C.3     
  32 O32            4.9121     0.6909    -1.5137 O.3     
  33 C33            5.8711     1.4547    -2.2477 C.3     
  34 H34            1.8584    -2.8491    -0.8056 H       
  35 H35           -0.2859    -3.9209    -0.2683 H       
  36 H36           -2.1902    -0.1007    -0.1119 H       
  37 H37           -1.9647     1.7098    -0.3082 H       
  38 H38            0.7542     6.1461    -1.1936 H       
  39 H39           -1.6105     7.0016    -0.7552 H       
  40 H40           -1.6997    -3.9542     2.2539 H       
  41 H41           -1.7095    -6.3951     2.5440 H       
  42 H42           -3.4356    -6.8405    -1.3574 H       
  43 H43           -3.4285    -4.3978    -1.6323 H       
  44 H44           -2.3270   -12.0645    -0.7241 H       
  45 H45           -3.4420   -12.4013     0.6218 H       
  46 H46           -4.0337   -11.5719    -0.8377 H       
  47 H47            5.1383    -1.0793    -2.5547 H       
  48 H48            3.8406    -0.0085    -3.1358 H       
  49 H49            2.9736    -2.0177    -1.9016 H       
  50 H50            4.3850    -0.6930     0.4584 H       
  51 H51            3.3019    -2.1022     0.5547 H       
  52 H52            4.8565    -2.2315    -0.3024 H       
  53 H53            6.2532     2.2590    -1.6190 H       
  54 H54            6.6947     0.8085    -2.5515 H       
  55 H55            5.3970     1.8793    -3.1326 H       
@<TRIPOS>BOND
   1    1    2 1
   2    1    8 2
   3    1    9 am
   4    2    3 ar
   5    2    7 ar
   6    3    4 ar
   7    3   28 1
   8    4    5 ar
   9    4   34 1
  10    5    6 ar
  11    5   35 1
  12    6    7 ar
  13    6   15 1
  14    7   36 1
  15    9   11 1
  16    9   37 1
  17   10   11 1
  18   10   14 1
  19   11   12 2
  20   12   13 1
  21   13   14 2
  22   13   38 1
  23   14   39 1
  24   15   16 1
  25   16   17 ar
  26   16   21 ar
  27   17   18 ar
  28   17   40 1
  29   18   19 ar
  30   18   41 1
  31   19   20 ar
  32   19   23 1
  33   20   21 ar
  34   20   42 1
  35   21   43 1
  36   22   23 1
  37   22   26 1
  38   23   24 2
  39   24   25 1
  40   25   26 2
  41   26   27 1
  42   27   44 1
  43   27   45 1
  44   27   46 1
  45   28   30 1
  46   29   30 1
  47   29   32 1
  48   29   47 1
  49   29   48 1
  50   30   31 1
  51   30   49 1
  52   31   50 1
  53   31   51 1
  54   31   52 1
  55   32   33 1
  56   33   53 1
  57   33   54 1
  58   33   55 1

#	End of record

