#	Name: ASD08710126
#	Creating user name:	WinNT
#	Creation time:	15. 06. 2019 21:19

#	Modifying user name:	WinNT
#	Modification time:	15. 06. 2019 21:19

#	Program:	/corina/corina34_cracker 3.40 0067  02.08.2006

@<TRIPOS>MOLECULE
ASD08710126
  36   37    0    0    0
SMALL
NO_CHARGES


@<TRIPOS>ATOM
   1 C1            -0.2937    -0.0287    -0.1472 C.1     
   2 C2            -0.1755     1.3896     0.0113 C.ar    
   3 C3            -1.1316     2.0956     0.7446 C.ar    
   4 C4            -1.0116     3.4615     0.8932 C.ar    
   5 C5             0.0531     4.1325     0.3177 C.ar    
   6 C6             1.0036     3.4394    -0.4104 C.ar    
   7 C7             0.8993     2.0720    -0.5617 C.ar    
   8 N8            -0.3875    -1.1538    -0.2729 N.1     
   9 S9             0.1985     5.8776     0.5126 S.o2    
  10 O10            1.3493     6.2691    -0.2235 O.2     
  11 O11           -1.0950     6.4168     0.2775 O.2     
  12 N12            0.5426     6.1658     2.1066 N.am    
  13 C13            1.9303     6.1523     2.5937 C.3     
  14 C14            2.0085     5.2302     3.8152 C.3     
  15 N15            1.0068     5.6480     4.8050 N.3     
  16 C16           -0.3563     5.5085     4.2753 C.3     
  17 C17           -0.5309     6.4481     3.0716 C.3     
  18 C18            3.4052     5.3192     4.4334 C.3     
  19 C19           -2.0426     4.2252     1.6837 C.3     
  20 H20           -1.9632     1.5732     1.1940 H       
  21 H21            1.8316     3.9694    -0.8575 H       
  22 H22            1.6446     1.5315    -1.1263 H       
  23 H23            2.5898     5.7790     1.8103 H       
  24 H24            2.2287     7.1616     2.8772 H       
  25 H25            1.8107     4.2031     3.5087 H       
  26 H26            1.1141     5.1345     5.6670 H       
  27 H27           -0.5212     4.4775     3.9625 H       
  28 H28           -1.0763     5.7737     5.0495 H       
  29 H29           -0.4645     7.4853     3.4001 H       
  30 H30           -1.4994     6.2703     2.6042 H       
  31 H31            3.6018     6.3463     4.7407 H       
  32 H32            3.4604     4.6631     5.3022 H       
  33 H33            4.1484     5.0114     3.6979 H       
  34 H34           -1.6903     4.3592     2.7065 H       
  35 H35           -2.2037     5.2004     1.2242 H       
  36 H36           -2.9796     3.6684     1.6922 H       
@<TRIPOS>BOND
   1    1    2 1
   2    1    8 3
   3    2    3 ar
   4    2    7 ar
   5    3    4 ar
   6    3   20 1
   7    4    5 ar
   8    4   19 1
   9    5    6 ar
  10    5    9 1
  11    6    7 ar
  12    6   21 1
  13    7   22 1
  14    9   10 2
  15    9   11 2
  16    9   12 am
  17   12   13 1
  18   12   17 1
  19   13   14 1
  20   13   23 1
  21   13   24 1
  22   14   15 1
  23   14   18 1
  24   14   25 1
  25   15   16 1
  26   15   26 1
  27   16   17 1
  28   16   27 1
  29   16   28 1
  30   17   29 1
  31   17   30 1
  32   18   31 1
  33   18   32 1
  34   18   33 1
  35   19   34 1
  36   19   35 1
  37   19   36 1

#	End of record

