#	Name: ASD01916017
#	Creating user name:	WinNT
#	Creation time:	15. 06. 2019 20:06

#	Modifying user name:	WinNT
#	Modification time:	15. 06. 2019 20:06

#	Program:	/corina/corina34_cracker 3.40 0067  02.08.2006

@<TRIPOS>MOLECULE
ASD01916017
  44   46    0    0    0
SMALL
NO_CHARGES


@<TRIPOS>ATOM
   1 C1            -0.0240     1.4050    -0.1226 C.ar    
   2 C2            -0.0162     0.0565     0.2622 C.ar    
   3 C3            -1.2202    -0.6182     0.3122 C.ar    
   4 C4            -2.3951     0.0586    -0.0190 C.ar    
   5 C5            -3.6884    -0.6572     0.0323 C.2     
   6 N6            -4.8382     0.0363     0.1482 N.am    
   7 O7            -3.7142    -1.8708    -0.0302 O.2     
   8 C8             1.1982     2.1481    -0.1905 C.1     
   9 C9             2.2002     2.7573    -0.2461 C.1     
  10 C10            3.4225     3.5004    -0.3140 C.ar    
  11 C11            3.4071     4.8438    -0.6982 C.ar    
  12 C12            5.8131     3.6095    -0.0582 C.ar    
  13 C13            4.5900     5.5540    -0.7614 C.ar    
  14 N14           -2.3676     1.3374    -0.3792 N.ar    
  15 C15           -1.2448     2.0133    -0.4453 C.ar    
  16 C16            4.6382     2.8861     0.0097 C.ar    
  17 C17            5.7904     4.9373    -0.4454 C.ar    
  18 C18           -4.8264     1.4898     0.3774 C.3     
  19 F19            4.5771     6.8529    -1.1327 F       
  20 C20           -5.7530     2.1489    -0.6506 C.3     
  21 O21           -7.0314     1.5101    -0.6098 O.3     
  22 C22           -7.0051     0.1251    -0.9631 C.3     
  23 C23           -6.1426    -0.6368     0.0433 C.3     
  24 C24           -8.4291    -0.4341    -0.9450 C.3     
  25 C25           -6.4103    -0.0338    -2.3638 C.3     
  26 F26            4.6622     1.5893     0.3881 F       
  27 H27            0.9084    -0.4421     0.5128 H       
  28 H28           -1.2522    -1.6576     0.6039 H       
  29 H29            2.4726     5.3255    -0.9455 H       
  30 H30            6.7523     3.1359     0.1869 H       
  31 H31           -1.2626     3.0515    -0.7423 H       
  32 H32            6.7121     5.4979    -0.4963 H       
  33 H33           -5.1830     1.7055     1.3846 H       
  34 H34           -3.8129     1.8723     0.2566 H       
  35 H35           -5.8668     3.2065    -0.4128 H       
  36 H36           -5.3248     2.0430    -1.6473 H       
  37 H37           -6.0016    -1.6628    -0.2965 H       
  38 H38           -6.6293    -0.6362     1.0186 H       
  39 H39           -9.0429     0.1117    -1.6616 H       
  40 H40           -8.4083    -1.4901    -1.2145 H       
  41 H41           -8.8507    -0.3223     0.0539 H       
  42 H42           -5.3951     0.3629    -2.3746 H       
  43 H43           -6.3906    -1.0900    -2.6325 H       
  44 H44           -7.0215     0.5125    -3.0822 H       
@<TRIPOS>BOND
   1    1    2 ar
   2    1    8 1
   3    1   15 ar
   4    2    3 ar
   5    2   27 1
   6    3    4 ar
   7    3   28 1
   8    4   14 ar
   9    4    5 1
  10    5    6 am
  11    5    7 2
  12    6   18 1
  13    6   23 1
  14    8    9 3
  15    9   10 1
  16   10   11 ar
  17   10   16 ar
  18   11   13 ar
  19   11   29 1
  20   12   17 ar
  21   12   16 ar
  22   12   30 1
  23   13   19 1
  24   13   17 ar
  25   14   15 ar
  26   15   31 1
  27   16   26 1
  28   17   32 1
  29   18   20 1
  30   18   33 1
  31   18   34 1
  32   20   21 1
  33   20   35 1
  34   20   36 1
  35   21   22 1
  36   22   23 1
  37   22   24 1
  38   22   25 1
  39   23   37 1
  40   23   38 1
  41   24   39 1
  42   24   40 1
  43   24   41 1
  44   25   42 1
  45   25   43 1
  46   25   44 1

#	End of record

