#	Name: ASD01208042
#	Creating user name:	WinNT
#	Creation time:	15. 06. 2019 19:09

#	Modifying user name:	WinNT
#	Modification time:	15. 06. 2019 19:09

#	Program:	/corina/corina34_cracker 3.40 0067  02.08.2006

@<TRIPOS>MOLECULE
ASD01208042
  63   67    0    0    0
SMALL
NO_CHARGES


@<TRIPOS>ATOM
   1 C1            -0.0490     1.3996     0.1332 C.ar    
   2 C2             0.1032     0.0242     0.0346 C.ar    
   3 C3            -1.0089    -0.8056     0.0720 C.ar    
   4 C4            -2.2759    -0.2631     0.2076 C.ar    
   5 C5            -2.4334     1.1203     0.3071 C.ar    
   6 C6            -1.3119     1.9503     0.2752 C.ar    
   7 C7            -3.7832     1.7038     0.4518 C.2     
   8 C8            -4.0709     3.0341     0.5579 C.2     
   9 N9            -4.9595     1.0017     0.4964 N.pl3   
  10 C10           -5.9943     1.8939     0.6373 C.2     
  11 C11           -5.4573     3.1621     0.6772 C.2     
  12 O12            1.0432     2.2075     0.0960 O.3     
  13 C13            0.8075     3.6168     0.0816 C.3     
  14 C14            1.9984     4.3265    -0.5657 C.3     
  15 O15            3.1599     4.1457     0.2470 O.3     
  16 C16            0.6326     4.1193     1.5161 C.3     
  17 O17           -0.8542    -2.1522    -0.0249 O.3     
  18 C18           -1.3384    -2.7712    -1.1317 C.ar    
  19 C19           -1.3157    -4.1607    -1.2163 C.ar    
  20 C20           -1.8606    -2.0170    -2.1749 C.ar    
  21 C21           -2.3530    -2.6411    -3.3001 C.ar    
  22 C22           -2.3274    -4.0347    -3.3923 C.ar    
  23 C23           -1.8067    -4.7920    -2.3391 C.ar    
  24 C24           -2.8547    -4.7062    -4.5963 C.2     
  25 N25           -2.9869    -6.0473    -4.6165 N.am    
  26 O26           -3.1697    -4.0495    -5.5699 O.2     
  27 C27           -7.4229     1.5557     0.7254 C.2     
  28 C28            4.3349     4.7728    -0.2708 C.3     
  29 N29           -8.3976     2.4132     0.8593 N.2     
  30 C30           -9.6154     1.9257     0.9204 C.2     
  31 C31           -9.7161     0.5951     0.8376 C.2     
  32 S32           -8.0944    -0.0717     0.6595 S.3     
  33 C33           -3.5044    -7.0462    -5.5638 C.3     
  34 C34           -3.8147    -7.9472    -4.3604 C.3     
  35 C35           -2.6712    -7.1564    -3.7038 C.3     
  36 F36           -0.8117    -4.8908    -0.1974 F       
  37 O37           -5.0992    -7.7225    -3.7760 O.3     
  38 H38            1.0898    -0.4021    -0.0719 H       
  39 H39           -3.1407    -0.9093     0.2359 H       
  40 H40           -1.4294     3.0212     0.3519 H       
  41 H41           -3.3550     3.8428     0.5512 H       
  42 H42           -5.0465     0.0374     0.4379 H       
  43 H43           -6.0071     4.0859     0.7815 H       
  44 H44           -0.0960     3.8283    -0.4902 H       
  45 H45            2.1782     3.9057    -1.5550 H       
  46 H46            1.7812     5.3907    -0.6574 H       
  47 H47            1.5362     3.9079     2.0879 H       
  48 H48            0.4528     5.1943     1.5051 H       
  49 H49           -0.2158     3.6138     1.9773 H       
  50 H50           -1.8808    -0.9395    -2.1037 H       
  51 H51           -2.7590    -2.0533    -4.1101 H       
  52 H52           -1.7852    -5.8697    -2.4068 H       
  53 H53            5.1717     4.5892     0.4031 H       
  54 H54            4.5631     4.3613    -1.2540 H       
  55 H55            4.1662     5.8463    -0.3564 H       
  56 H56          -10.4821     2.5604     1.0312 H       
  57 H57          -10.6339     0.0267     0.8700 H       
  58 H58           -4.3943    -6.7160    -6.0997 H       
  59 H59           -2.7401    -7.4537    -6.2255 H       
  60 H60           -3.5908    -9.0016    -4.5221 H       
  61 H61           -1.6876    -7.5950    -3.8720 H       
  62 H62           -2.8537    -6.9188    -2.6558 H       
  63 H63           -5.2916    -8.2916    -3.0183 H       
@<TRIPOS>BOND
   1    1    2 ar
   2    1   12 1
   3    1    6 ar
   4    2    3 ar
   5    2   38 1
   6    3    4 ar
   7    3   17 1
   8    4    5 ar
   9    4   39 1
  10    5    6 ar
  11    5    7 1
  12    6   40 1
  13    7    8 2
  14    7    9 1
  15    8   11 1
  16    8   41 1
  17    9   10 1
  18    9   42 1
  19   10   11 2
  20   10   27 1
  21   11   43 1
  22   12   13 1
  23   13   14 1
  24   13   16 1
  25   13   44 1
  26   14   15 1
  27   14   45 1
  28   14   46 1
  29   15   28 1
  30   16   47 1
  31   16   48 1
  32   16   49 1
  33   17   18 1
  34   18   19 ar
  35   18   20 ar
  36   19   36 1
  37   19   23 ar
  38   20   21 ar
  39   20   50 1
  40   21   22 ar
  41   21   51 1
  42   22   23 ar
  43   22   24 1
  44   23   52 1
  45   24   25 am
  46   24   26 2
  47   25   33 1
  48   25   35 1
  49   27   29 2
  50   27   32 1
  51   28   53 1
  52   28   54 1
  53   28   55 1
  54   29   30 1
  55   30   31 2
  56   30   56 1
  57   31   32 1
  58   31   57 1
  59   33   34 1
  60   33   58 1
  61   33   59 1
  62   34   35 1
  63   34   37 1
  64   34   60 1
  65   35   61 1
  66   35   62 1
  67   37   63 1

#	End of record

