#	Name: ASD05730144
#	Creating user name:	WinNT
#	Creation time:	15. 06. 2019 21:02

#	Modifying user name:	WinNT
#	Modification time:	15. 06. 2019 21:02

#	Program:	/corina/corina34_cracker 3.40 0067  02.08.2006

@<TRIPOS>MOLECULE
ASD05730144
  81   87    0    0    0
SMALL
NO_CHARGES


@<TRIPOS>ATOM
   1 N1            -0.0118     1.3947     0.0612 N.pl3   
   2 C2             0.0057    -0.0044     0.0405 C.ar    
   3 C3            -1.0324    -0.7031    -0.5619 C.ar    
   4 C4            -1.0149    -2.0835    -0.5827 C.ar    
   5 C5             0.0408    -2.7733    -0.0013 C.ar    
   6 C6             1.0787    -2.0748     0.6015 C.ar    
   7 C7             1.0641    -0.6942     0.6173 C.ar    
   8 N8             0.0586    -4.1737    -0.0224 N.pl3   
   9 C9             1.2583    -4.8474    -0.1422 C.ar    
  10 N10            1.2605    -6.1684    -0.0467 N.ar    
  11 C11            2.3945    -6.8510    -0.1571 C.ar    
  12 C12            3.5946    -6.1409    -0.3778 C.ar    
  13 C13            3.5394    -4.7420    -0.4714 C.ar    
  14 N14            2.3672    -4.1469    -0.3544 N.ar    
  15 N15            2.4060    -8.2195    -0.0590 N.am    
  16 C16            3.5591    -8.9066    -0.1709 C.2     
  17 C17            4.8215    -8.2008    -0.3996 C.2     
  18 C18            4.8196    -6.8352    -0.5006 C.2     
  19 C19            1.1516    -8.9406     0.1701 C.3     
  20 O20            3.5517   -10.1214    -0.0810 O.2     
  21 C21            6.0896    -8.9575    -0.5211 C.ar    
  22 C22            1.0833     2.1316     0.6966 C.3     
  23 C23            0.5142    -9.2954    -1.1748 C.3     
  24 C24            2.2287     2.3073    -0.3031 C.3     
  25 C25            6.6835    -9.1325    -1.7709 C.ar    
  26 N26            3.3181     3.0643     0.3268 N.3     
  27 C27            2.8739     4.4082     0.7178 C.3     
  28 C28            1.7479     4.2953     1.7480 C.3     
  29 C29            0.5831     3.5094     1.1395 C.3     
  30 C30            6.6970    -9.4925     0.6143 C.ar    
  31 C31            7.8780   -10.1964     0.4948 C.ar    
  32 C32            8.4592   -10.3716    -0.7481 C.ar    
  33 C33            7.8642    -9.8381    -1.8777 C.ar    
  34 S34            9.9675   -11.2710    -0.8925 S.o2    
  35 C35            9.5439   -12.9632    -1.1411 C.ar    
  36 C36            9.3694   -13.4509    -2.4227 C.ar    
  37 C37            9.3917   -13.8043    -0.0548 C.ar    
  38 C38            9.0594   -15.1319    -0.2498 C.ar    
  39 C39            8.8788   -15.6182    -1.5311 C.ar    
  40 C40            9.0370   -14.7785    -2.6177 C.ar    
  41 O41           10.5836   -10.8308    -2.0949 O.2     
  42 O42           10.6011   -11.1983     0.3773 O.2     
  43 C43           -0.7500   -10.1568    -1.1521 C.3     
  44 C44           -0.8436    -8.6698    -1.5001 C.3     
  45 C45            6.0364    -8.5526    -3.0021 C.3     
  46 F46            6.8130    -8.8583    -4.1250 F       
  47 F47            4.7573    -9.0975    -3.1574 F       
  48 F48            5.9384    -7.1636    -2.8671 F       
  49 H49           -0.7470     1.8766    -0.3488 H       
  50 H50           -1.8537    -0.1666    -1.0138 H       
  51 H51           -1.8224    -2.6268    -1.0508 H       
  52 H52            1.8996    -2.6113     1.0540 H       
  53 H53            1.8713    -0.1510     1.0861 H       
  54 H54           -0.7717    -4.6704     0.0472 H       
  55 H55            4.4365    -4.1648    -0.6393 H       
  56 H56            5.7404    -6.2967    -0.6691 H       
  57 H57            1.3546    -9.8545     0.7283 H       
  58 H58            0.4692    -8.3104     0.7405 H       
  59 H59            1.4398     1.5769     1.5646 H       
  60 H60            1.2104    -9.4450    -2.0001 H       
  61 H61            2.5966     1.3282    -0.6096 H       
  62 H62            1.8678     2.8495    -1.1772 H       
  63 H63            3.6959     2.5640     1.1174 H       
  64 H64            3.7106     4.9550     1.1527 H       
  65 H65            2.5101     4.9405    -0.1611 H       
  66 H66            2.1150     3.7752     2.6328 H       
  67 H67            1.4078     5.2928     2.0263 H       
  68 H68            0.1905     4.0488     0.2775 H       
  69 H69           -0.2036     3.3891     1.8843 H       
  70 H70            6.2443    -9.3560     1.5853 H       
  71 H71            8.3496   -10.6110     1.3735 H       
  72 H72            8.3227    -9.9782    -2.8454 H       
  73 H73            9.4923   -12.7947    -3.2716 H       
  74 H74            9.5327   -13.4244     0.9463 H       
  75 H75            8.9411   -15.7893     0.5989 H       
  76 H76            8.6196   -16.6555    -1.6835 H       
  77 H77            8.8960   -15.1584    -3.6188 H       
  78 H78           -0.8857   -10.8729    -1.9627 H       
  79 H79           -1.1277   -10.4708    -0.1791 H       
  80 H80           -1.2829    -8.0055    -0.7559 H       
  81 H81           -1.0410    -8.4076    -2.5395 H       
@<TRIPOS>BOND
   1    1    2 1
   2    1   22 1
   3    1   49 1
   4    2    3 ar
   5    2    7 ar
   6    3    4 ar
   7    3   50 1
   8    4    5 ar
   9    4   51 1
  10    5    6 ar
  11    5    8 1
  12    6    7 ar
  13    6   52 1
  14    7   53 1
  15    8    9 1
  16    8   54 1
  17    9   10 ar
  18    9   14 ar
  19   10   11 ar
  20   11   12 ar
  21   11   15 1
  22   12   13 ar
  23   12   18 1
  24   13   14 ar
  25   13   55 1
  26   15   16 am
  27   15   19 1
  28   16   17 1
  29   16   20 2
  30   17   18 2
  31   17   21 1
  32   18   56 1
  33   19   23 1
  34   19   57 1
  35   19   58 1
  36   21   25 ar
  37   21   30 ar
  38   22   24 1
  39   22   29 1
  40   22   59 1
  41   23   43 1
  42   23   44 1
  43   23   60 1
  44   24   26 1
  45   24   61 1
  46   24   62 1
  47   25   45 1
  48   25   33 ar
  49   26   27 1
  50   26   63 1
  51   27   28 1
  52   27   64 1
  53   27   65 1
  54   28   29 1
  55   28   66 1
  56   28   67 1
  57   29   68 1
  58   29   69 1
  59   30   31 ar
  60   30   70 1
  61   31   32 ar
  62   31   71 1
  63   32   33 ar
  64   32   34 1
  65   33   72 1
  66   34   35 1
  67   34   41 2
  68   34   42 2
  69   35   36 ar
  70   35   37 ar
  71   36   40 ar
  72   36   73 1
  73   37   38 ar
  74   37   74 1
  75   38   39 ar
  76   38   75 1
  77   39   40 ar
  78   39   76 1
  79   40   77 1
  80   43   44 1
  81   43   78 1
  82   43   79 1
  83   44   80 1
  84   44   81 1
  85   45   46 1
  86   45   47 1
  87   45   48 1

#	End of record

