#	Name: ASD01100034
#	Creating user name:	WinNT
#	Creation time:	15. 06. 2019 18:58

#	Modifying user name:	WinNT
#	Modification time:	15. 06. 2019 18:58

#	Program:	/corina/corina34_cracker 3.40 0067  02.08.2006

@<TRIPOS>MOLECULE
ASD01100034
  33   34    0    0    0
SMALL
NO_CHARGES


@<TRIPOS>ATOM
   1 C1             0.1626     1.2947    -0.9234 C.ar    
   2 C2             0.2404    -0.0849    -0.9939 C.ar    
   3 C3             1.4413    -0.7233    -0.7402 C.ar    
   4 C4             2.5625     0.0173    -0.4165 C.ar    
   5 C5             2.4841     1.3957    -0.3462 C.ar    
   6 C6             1.2845     2.0342    -0.5996 C.ar    
   7 C7             3.7069     2.2026     0.0072 C.3     
   8 C8             3.4377     3.0045     1.2822 C.3     
   9 C9             3.2222     2.0435     2.4531 C.3     
  10 C10            4.6358     3.9087     1.5784 C.3     
  11 Cl11          -1.1684    -1.0144    -1.3999 Cl      
  12 C12            4.0289     3.1473    -1.1218 C.2     
  13 N13            5.1814     3.8459    -1.1080 N.am    
  14 O14            3.2509     3.2791    -2.0430 O.2     
  15 C15            5.4430     4.7799    -2.1108 C.2     
  16 C16            6.5432     5.5650    -2.2509 C.2     
  17 N17            6.5381     6.3642    -3.2916 N.2     
  18 N18            5.5261     6.3476    -4.0777 N.2     
  19 S19            4.4469     5.1929    -3.4552 S.3     
  20 H20           -0.7735     1.7939    -1.1257 H       
  21 H21            1.5025    -1.8002    -0.7947 H       
  22 H22            3.4999    -0.4810    -0.2181 H       
  23 H23            1.2238     3.1111    -0.5446 H       
  24 H24            4.5500     1.5316     0.1712 H       
  25 H25            2.5460     3.6161     1.1452 H       
  26 H26            4.1140     1.4319     2.5900 H       
  27 H27            3.0305     2.6148     3.3614 H       
  28 H28            2.3687     1.3993     2.2421 H       
  29 H29            4.8523     4.5230     0.7043 H       
  30 H30            4.4040     4.5527     2.4267 H       
  31 H31            5.5047     3.2947     1.8151 H       
  32 H32            5.8290     3.6992    -0.4009 H       
  33 H33            7.3664     5.5335    -1.5525 H       
@<TRIPOS>BOND
   1    1    2 ar
   2    1    6 ar
   3    1   20 1
   4    2    3 ar
   5    2   11 1
   6    3    4 ar
   7    3   21 1
   8    4    5 ar
   9    4   22 1
  10    5    6 ar
  11    5    7 1
  12    6   23 1
  13    7    8 1
  14    7   12 1
  15    7   24 1
  16    8    9 1
  17    8   10 1
  18    8   25 1
  19    9   26 1
  20    9   27 1
  21    9   28 1
  22   10   29 1
  23   10   30 1
  24   10   31 1
  25   12   13 am
  26   12   14 2
  27   13   15 1
  28   13   32 1
  29   15   16 2
  30   15   19 1
  31   16   17 1
  32   16   33 1
  33   17   18 2
  34   18   19 1

#	End of record

