#	Name: ASD02560341
#	Creating user name:	WinNT
#	Creation time:	15. 06. 2019 20:25

#	Modifying user name:	WinNT
#	Modification time:	15. 06. 2019 20:25

#	Program:	/corina/corina34_cracker 3.40 0067  02.08.2006

@<TRIPOS>MOLECULE
ASD02560341
  39   41    0    0    0
SMALL
NO_CHARGES


@<TRIPOS>ATOM
   1 C1            -0.0082     1.4090     0.1366 C.2     
   2 C2             0.0074     0.0032     0.1007 C.2     
   3 C3             1.1777    -0.6644     0.0548 C.2     
   4 N4             2.3660     0.0142     0.0425 N.pl3   
   5 C5             2.3817     1.3896     0.0764 C.2     
   6 C6             1.1636     2.0982     0.1245 C.2     
   7 C7             3.6693    -0.4001    -0.0006 C.2     
   8 C8             4.4427     0.7147     0.0077 C.2     
   9 N9             3.6441     1.7871     0.0546 N.2     
  10 C10            5.9491     0.7407    -0.0291 C.3     
  11 N11            4.1201    -1.7252    -0.0446 N.3     
  12 C12            2.9997    -2.6669     0.0813 C.3     
  13 C13            2.3196    -2.8352    -1.2789 C.3     
  14 C14            3.5239    -4.0221     0.5606 C.3     
  15 C15            2.3570    -5.0029     0.6917 C.3     
  16 C16            1.6769    -5.1712    -0.6684 C.3     
  17 C17            1.1527    -3.8160    -1.1477 C.3     
  18 C18            6.4230     0.7852    -1.4832 C.3     
  19 H19           -0.9483     1.9396     0.1692 H       
  20 H20           -0.9233    -0.5447     0.1102 H       
  21 H21            1.1775    -1.7441     0.0279 H       
  22 H22            1.1616     3.1779     0.1512 H       
  23 H23            6.3102     1.6238     0.4979 H       
  24 H24            6.3398    -0.1553     0.4532 H       
  25 H25            4.6466    -1.9002    -0.8874 H       
  26 H26            2.2795    -2.2803     0.8023 H       
  27 H27            1.9462    -1.8698    -1.6203 H       
  28 H28            3.0399    -3.2218    -1.9999 H       
  29 H29            4.2442    -4.4086    -0.1605 H       
  30 H30            4.0085    -3.9021     1.5296 H       
  31 H31            2.7305    -5.9683     1.0332 H       
  32 H32            1.6367    -4.6163     1.4127 H       
  33 H33            2.3972    -5.5578    -1.3895 H       
  34 H34            0.8456    -5.8699    -0.5750 H       
  35 H35            0.4324    -3.4295    -0.4267 H       
  36 H36            0.6682    -3.9359    -2.1167 H       
  37 H37            7.5125     0.8039    -1.5098 H       
  38 H38            6.0618    -0.0980    -2.0102 H       
  39 H39            6.0323     1.6812    -1.9654 H       
@<TRIPOS>BOND
   1    1    2 1
   2    1    6 2
   3    1   19 1
   4    2    3 2
   5    2   20 1
   6    3    4 1
   7    3   21 1
   8    4    5 1
   9    4    7 1
  10    5    6 1
  11    5    9 2
  12    6   22 1
  13    7    8 2
  14    7   11 1
  15    8    9 1
  16    8   10 1
  17   10   18 1
  18   10   23 1
  19   10   24 1
  20   11   12 1
  21   11   25 1
  22   12   14 1
  23   12   13 1
  24   12   26 1
  25   13   17 1
  26   13   27 1
  27   13   28 1
  28   14   15 1
  29   14   29 1
  30   14   30 1
  31   15   16 1
  32   15   31 1
  33   15   32 1
  34   16   17 1
  35   16   33 1
  36   16   34 1
  37   17   35 1
  38   17   36 1
  39   18   37 1
  40   18   38 1
  41   18   39 1

#	End of record

