#	Name: ASD02030565
#	Creating user name:	WinNT
#	Creation time:	15. 06. 2019 20:15

#	Modifying user name:	WinNT
#	Modification time:	15. 06. 2019 20:15

#	Program:	/corina/corina34_cracker 3.40 0067  02.08.2006

@<TRIPOS>MOLECULE
ASD02030565
  42   44    0    0    0
SMALL
NO_CHARGES


@<TRIPOS>ATOM
   1 S1            -0.0220     1.7682     0.0118 S.3     
   2 C2             0.0021    -0.0041     0.0020 C.2     
   3 N3             1.3150    -0.3971    -0.0126 N.am    
   4 C4             2.2811     0.5054    -0.0170 C.2     
   5 C5             1.7940     1.9357    -0.0047 C.3     
   6 C6             2.2555     2.6726    -1.2636 C.3     
   7 C7             1.7685     4.0980    -1.2182 C.2     
   8 N8             2.0575     4.9414    -2.2290 N.am    
   9 O9             1.1165     4.4862    -0.2721 O.2     
  10 C10            1.6095     6.2524    -2.1872 C.2     
  11 C11            0.6124     8.4928    -1.6926 C.2     
  12 S12            0.6944     6.9227    -0.9166 S.3     
  13 C13            1.8472     7.1874    -3.1591 C.2     
  14 C14            2.6132     6.9082    -4.3755 C.2     
  15 O15            3.9486     7.0978    -4.3899 O.3     
  16 O16            2.0453     6.5054    -5.3729 O.2     
  17 O17            3.4572     0.2106    -0.0298 O.2     
  18 N18           -1.0376    -0.7891     0.0081 N.2     
  19 O19            0.3629    10.8622    -1.8752 O.3     
  20 C20           -0.0871     9.7196    -1.1412 C.3     
  21 C21            1.2644     8.4801    -2.8634 C.2     
  22 C22            1.3565     9.7091    -3.7546 C.3     
  23 C23            0.2885    10.7082    -3.2954 C.3     
  24 C24            4.6432     6.8007    -5.6299 C.3     
  25 C25            6.1384     7.0743    -5.4551 C.3     
  26 H26            1.5363    -1.3415    -0.0195 H       
  27 H27            2.1399     2.4511     0.8913 H       
  28 H28            3.3443     2.6621    -1.3122 H       
  29 H29            1.8476     2.1772    -2.1447 H       
  30 H30            2.5789     4.6309    -2.9856 H       
  31 H31           -0.9185    -1.7518     0.0018 H       
  32 H32           -1.1647     9.6073    -1.2604 H       
  33 H33            0.1556     9.8421    -0.0856 H       
  34 H34            2.3453    10.1582    -3.6620 H       
  35 H35            1.1751     9.4267    -4.7917 H       
  36 H36           -0.6989    10.3369    -3.5697 H       
  37 H37            0.4614    11.6715    -3.7752 H       
  38 H38            4.4935     5.7523    -5.8880 H       
  39 H39            4.2493     7.4311    -6.4271 H       
  40 H40            6.6598     6.8512    -6.3859 H       
  41 H41            6.2882     8.1226    -5.1969 H       
  42 H42            6.5323     6.4439    -4.6579 H       
@<TRIPOS>BOND
   1    1    2 1
   2    1    5 1
   3    2    3 1
   4    2   18 2
   5    3    4 am
   6    3   26 1
   7    4    5 1
   8    4   17 2
   9    5    6 1
  10    5   27 1
  11    6    7 1
  12    6   28 1
  13    6   29 1
  14    7    8 am
  15    7    9 2
  16    8   10 1
  17    8   30 1
  18   10   13 2
  19   10   12 1
  20   11   12 1
  21   11   21 2
  22   11   20 1
  23   13   21 1
  24   13   14 1
  25   14   15 1
  26   14   16 2
  27   15   24 1
  28   18   31 1
  29   19   20 1
  30   19   23 1
  31   20   32 1
  32   20   33 1
  33   21   22 1
  34   22   23 1
  35   22   34 1
  36   22   35 1
  37   23   36 1
  38   23   37 1
  39   24   25 1
  40   24   38 1
  41   24   39 1
  42   25   40 1
  43   25   41 1
  44   25   42 1

#	End of record

