#	Name: ASD00310161
#	Creating user name:	WinNT
#	Creation time:	15. 06. 2019 18:33

#	Modifying user name:	WinNT
#	Modification time:	15. 06. 2019 18:33

#	Program:	/corina/corina34_cracker 3.40 0067  02.08.2006

@<TRIPOS>MOLECULE
ASD00310161
  18   19    0    0    0
SMALL
NO_CHARGES


@<TRIPOS>ATOM
   1 N1            -0.0153     1.2796     0.0091 N.pl3   
   2 N2             0.0021    -0.0041     0.0020 N.2     
   3 C3             1.2293    -0.4796    -0.0122 C.2     
   4 C4             2.1245     0.6859    -0.0145 C.ar    
   5 C5             3.5030     0.8773    -0.0270 C.ar    
   6 C6             4.0102     2.1471    -0.0255 C.ar    
   7 C7             3.1582     3.2478    -0.0114 C.ar    
   8 C8             1.7900     3.0784     0.0011 C.ar    
   9 C9             1.2553     1.7940    -0.0003 C.ar    
  10 C10            1.6264    -1.8974    -0.0232 C.2     
  11 O11            2.8037    -2.1986    -0.0357 O.2     
  12 O12            0.6841    -2.8612    -0.0195 O.3     
  13 F13            3.6773     4.4951    -0.0096 F       
  14 Br14           5.8828     2.4098    -0.0418 Br      
  15 H15           -0.8233     1.8162     0.0160 H       
  16 H16            4.1689     0.0270    -0.0376 H       
  17 H17            1.1367     3.9383     0.0123 H       
  18 H18            0.9932    -3.7774    -0.0270 H       
@<TRIPOS>BOND
   1    1    2 1
   2    1    9 1
   3    1   15 1
   4    2    3 2
   5    3    4 1
   6    3   10 1
   7    4    5 ar
   8    4    9 ar
   9    5    6 ar
  10    5   16 1
  11    6    7 ar
  12    6   14 1
  13    7    8 ar
  14    7   13 1
  15    8    9 ar
  16    8   17 1
  17   10   11 2
  18   10   12 1
  19   12   18 1

#	End of record

