#	Name: ASD01812881
#	Creating user name:	WinNT
#	Creation time:	15. 06. 2019 19:29

#	Modifying user name:	WinNT
#	Modification time:	15. 06. 2019 19:29

#	Program:	/corina/corina34_cracker 3.40 0067  02.08.2006

@<TRIPOS>MOLECULE
ASD01812881
  54   58    0    0    0
SMALL
NO_CHARGES


@<TRIPOS>ATOM
   1 N1             0.0027     1.3184    -0.2224 N.ar    
   2 C2             0.0319     0.0058    -0.3460 C.ar    
   3 C3             1.2340    -0.6843    -0.3682 C.ar    
   4 C4             2.4113     0.0205    -0.2593 C.ar    
   5 C5             2.3614     1.4132    -0.1292 C.ar    
   6 C6             1.1073     2.0395    -0.1145 C.ar    
   7 C7             3.8682    -0.3581    -0.2428 C.3     
   8 N8             4.6151     0.8975    -0.0972 N.am    
   9 C9             3.7395     1.9163    -0.0322 C.2     
  10 C10            6.0736     1.0204    -0.0337 C.3     
  11 C11            6.6239     1.1966    -1.4255 C.ar    
  12 O12            1.0259     3.3855     0.0100 O.3     
  13 O13            4.0442     3.0870     0.0899 O.2     
  14 C14            6.7706     2.4669    -1.9529 C.ar    
  15 C15            7.2742     2.6339    -3.2271 C.ar    
  16 C16            7.6349     1.5203    -3.9822 C.ar    
  17 C17            7.4851     0.2433    -3.4463 C.ar    
  18 C18            6.9859     0.0878    -2.1689 C.ar    
  19 C19            8.5674     0.6963    -6.1984 C.2     
  20 C20            8.1767     1.6939    -5.3537 C.2     
  21 C21            8.3807     2.9183    -6.0192 C.2     
  22 N22            8.8695     2.6603    -7.2032 N.2     
  23 N23            8.9959     1.2725    -7.3395 N.pl3   
  24 C24            9.5061     0.5682    -8.5184 C.3     
  25 C25           -0.2021     3.9617    -0.0802 C.ar    
  26 C26           -1.0087     4.0614     1.0465 C.ar    
  27 C27           -2.2577     4.6483     0.9509 C.ar    
  28 C28           -2.7025     5.1344    -0.2646 C.ar    
  29 C29           -1.9011     5.0354    -1.3870 C.ar    
  30 C30           -0.6499     4.4562    -1.2961 C.ar    
  31 C31           -4.0638     5.7728    -0.3664 C.3     
  32 F32           -0.5740     3.5855     2.2339 F       
  33 C33           -3.9485     7.2176    -0.1093 C.1     
  34 N34           -3.8596     8.3326     0.0891 N.1     
  35 H35           -0.8959    -0.5406    -0.4310 H       
  36 H36            1.2466    -1.7595    -0.4692 H       
  37 H37            4.0747    -1.0171     0.6004 H       
  38 H38            4.1385    -0.8488    -1.1778 H       
  39 H39            6.3392     1.8853     0.5742 H       
  40 H40            6.4951     0.1196     0.4123 H       
  41 H41            6.4903     3.3296    -1.3667 H       
  42 H42            7.3879     3.6261    -3.6381 H       
  43 H43            7.7630    -0.6234    -4.0277 H       
  44 H44            6.8738    -0.9016    -1.7507 H       
  45 H45            8.5424    -0.3630    -5.9892 H       
  46 H46            8.1693     3.8996    -5.6205 H       
  47 H47            8.6802     0.3440    -9.1935 H       
  48 H48           10.2337     1.1975    -9.0310 H       
  49 H49            9.9841    -0.3609    -8.2080 H       
  50 H50           -2.8858     4.7265     1.8260 H       
  51 H51           -2.2518     5.4154    -2.3351 H       
  52 H52           -0.0231     4.3839    -2.1726 H       
  53 H53           -4.4663     5.6128    -1.3667 H       
  54 H54           -4.7312     5.3249     0.3698 H       
@<TRIPOS>BOND
   1    1    2 ar
   2    1    6 ar
   3    2    3 ar
   4    2   35 1
   5    3    4 ar
   6    3   36 1
   7    4    7 1
   8    4    5 ar
   9    5    6 ar
  10    5    9 1
  11    6   12 1
  12    7    8 1
  13    7   37 1
  14    7   38 1
  15    8    9 am
  16    8   10 1
  17    9   13 2
  18   10   11 1
  19   10   39 1
  20   10   40 1
  21   11   14 ar
  22   11   18 ar
  23   12   25 1
  24   14   15 ar
  25   14   41 1
  26   15   16 ar
  27   15   42 1
  28   16   17 ar
  29   16   20 1
  30   17   18 ar
  31   17   43 1
  32   18   44 1
  33   19   20 2
  34   19   23 1
  35   19   45 1
  36   20   21 1
  37   21   22 2
  38   21   46 1
  39   22   23 1
  40   23   24 1
  41   24   47 1
  42   24   48 1
  43   24   49 1
  44   25   26 ar
  45   25   30 ar
  46   26   27 ar
  47   26   32 1
  48   27   28 ar
  49   27   50 1
  50   28   29 ar
  51   28   31 1
  52   29   30 ar
  53   29   51 1
  54   30   52 1
  55   31   33 1
  56   31   53 1
  57   31   54 1
  58   33   34 3

#	End of record

