#	Name: ASD01811096
#	Creating user name:	WinNT
#	Creation time:	15. 06. 2019 19:26

#	Modifying user name:	WinNT
#	Modification time:	15. 06. 2019 19:26

#	Program:	/corina/corina34_cracker 3.40 0067  02.08.2006

@<TRIPOS>MOLECULE
ASD01811096
  48   51    0    0    0
SMALL
NO_CHARGES


@<TRIPOS>ATOM
   1 C1            -0.0161     1.3393     0.0094 C.2     
   2 C2             0.0021    -0.0041     0.0020 C.2     
   3 N3            -1.1617    -0.7194     0.0278 N.pl3   
   4 C4            -2.3742    -0.1532     0.0484 C.2     
   5 C5            -2.4977     1.2221     0.0475 C.2     
   6 C6            -1.2652     2.0204     0.0311 C.2     
   7 C7            -1.0779    -2.1820     0.0326 C.3     
   8 C8            -1.0216    -2.6772     1.4548 C.ar    
   9 O9            -1.3113     3.2403     0.0286 O.2     
  10 C10           -3.8204     1.8664     0.0670 C.2     
  11 O11           -4.8275     1.1862     0.0842 O.2     
  12 O12           -3.9152     3.2109     0.0658 O.3     
  13 N13            0.1395    -2.7309     2.0780 N.ar    
  14 C14            0.2426    -3.1560     3.3207 C.ar    
  15 C15           -0.8864    -3.5680     4.0251 C.ar    
  16 C16           -2.1318    -3.5230     3.3923 C.ar    
  17 C17           -2.1892    -3.0630     2.0880 C.ar    
  18 C18           -0.7687    -4.0474     5.4244 C.ar    
  19 C19            0.4777    -4.0889     6.0463 C.ar    
  20 C20            0.5825    -4.5349     7.3477 C.ar    
  21 C21           -0.5491    -4.9411     8.0362 C.ar    
  22 C22           -1.7902    -4.9015     7.4218 C.ar    
  23 C23           -1.9049    -4.4519     6.1224 C.ar    
  24 C24            1.2310     2.1827     0.0020 C.3     
  25 C25            2.4368     1.3624    -0.4510 C.3     
  26 C26            2.4716     0.0694     0.3732 C.3     
  27 C27            1.2858    -0.7961    -0.0448 C.3     
  28 O28            1.0489     3.2837    -0.8905 O.3     
  29 F29           -0.4419    -5.3776     9.3103 F       
  30 H30           -3.2581    -0.7735     0.0654 H       
  31 H31           -1.9555    -2.5978    -0.4625 H       
  32 H32           -0.1788    -2.4962    -0.4974 H       
  33 H33           -4.8054     3.5882     0.0790 H       
  34 H34            1.2112    -3.1855     3.7976 H       
  35 H35           -3.0272    -3.8350     3.9093 H       
  36 H36           -3.1342    -3.0144     1.5675 H       
  37 H37            1.3603    -3.7727     5.5102 H       
  38 H38            1.5481    -4.5677     7.8304 H       
  39 H39           -2.6698    -5.2191     7.9621 H       
  40 H40           -2.8728    -4.4210     5.6443 H       
  41 H41            1.4129     2.5629     1.0072 H       
  42 H42            2.3411     1.1215    -1.5097 H       
  43 H43            3.3520     1.9303    -0.2835 H       
  44 H44            3.4023    -0.4643     0.1806 H       
  45 H45            2.3967     0.3077     1.4342 H       
  46 H46            1.2071    -1.6474     0.6313 H       
  47 H47            1.4467    -1.1588    -1.0600 H       
  48 H48            1.8130     3.8736    -0.9484 H       
@<TRIPOS>BOND
   1    1    2 2
   2    1   24 1
   3    1    6 1
   4    2    3 1
   5    2   27 1
   6    3    4 1
   7    3    7 1
   8    4    5 2
   9    4   30 1
  10    5    6 1
  11    5   10 1
  12    6    9 2
  13    7    8 1
  14    7   31 1
  15    7   32 1
  16    8   13 ar
  17    8   17 ar
  18   10   11 2
  19   10   12 1
  20   12   33 1
  21   13   14 ar
  22   14   15 ar
  23   14   34 1
  24   15   16 ar
  25   15   18 1
  26   16   17 ar
  27   16   35 1
  28   17   36 1
  29   18   19 ar
  30   18   23 ar
  31   19   20 ar
  32   19   37 1
  33   20   21 ar
  34   20   38 1
  35   21   22 ar
  36   21   29 1
  37   22   23 ar
  38   22   39 1
  39   23   40 1
  40   24   25 1
  41   24   28 1
  42   24   41 1
  43   25   26 1
  44   25   42 1
  45   25   43 1
  46   26   27 1
  47   26   44 1
  48   26   45 1
  49   27   46 1
  50   27   47 1
  51   28   48 1

#	End of record

