#	Name: ASD05730073
#	Creating user name:	WinNT
#	Creation time:	15. 06. 2019 21:02

#	Modifying user name:	WinNT
#	Modification time:	15. 06. 2019 21:02

#	Program:	/corina/corina34_cracker 3.40 0067  02.08.2006

@<TRIPOS>MOLECULE
ASD05730073
  77   82    0    0    0
SMALL
NO_CHARGES


@<TRIPOS>ATOM
   1 O1             0.2987     1.6857     0.8536 O.3     
   2 C2             0.2850     0.3318     0.7267 C.ar    
   3 C3            -0.6982    -0.2831    -0.0346 C.ar    
   4 C4            -0.7131    -1.6579    -0.1636 C.ar    
   5 C5             0.2567    -2.4248     0.4686 C.ar    
   6 C6             1.2408    -1.8084     1.2302 C.ar    
   7 C7             1.2574    -0.4331     1.3539 C.ar    
   8 N8             0.2420    -3.8189     0.3387 N.pl3   
   9 C9             1.4294    -4.5129     0.2045 C.ar    
  10 N10            1.3971    -5.8367     0.1955 N.ar    
  11 C11            2.5178    -6.5382     0.0680 C.ar    
  12 C12            3.7409    -5.8451    -0.0574 C.ar    
  13 C13            3.7222    -4.4427    -0.0421 C.ar    
  14 N14            2.5610    -3.8276     0.0839 N.ar    
  15 N15            2.4938    -7.9103     0.0581 N.am    
  16 C16            3.6335    -8.6163    -0.0711 C.2     
  17 C17            4.9194    -7.9280    -0.2028 C.2     
  18 C18            4.9533    -6.5603    -0.1954 C.2     
  19 C19            1.2157    -8.6141     0.1898 C.3     
  20 C20            0.6158    -8.8460    -1.1984 C.3     
  21 O21            3.5945    -9.8339    -0.0779 O.2     
  22 C22            6.1736    -8.7065    -0.3435 C.2     
  23 C23           -0.6640     2.4184     0.0931 C.3     
  24 C24            6.7685    -9.1342    -1.5581 C.2     
  25 C25           -2.0084     2.4719     0.8423 C.3     
  26 N26           -2.2891     3.8956     1.1285 N.3     
  27 C27           -1.5569     4.6688     0.0930 C.3     
  28 C28           -0.2236     3.8932    -0.0519 C.3     
  29 C29           -3.7310     4.1701     1.0690 C.3     
  30 C30           -0.6684    -9.6733    -1.2838 C.3     
  31 C31           -0.7153    -8.1618    -1.5161 C.3     
  32 C32            6.9741    -9.1403     0.6681 C.2     
  33 N33            8.0222    -9.8147     0.1171 N.am    
  34 C34            7.8904    -9.8070    -1.2407 C.2     
  35 S35            9.2582   -10.5255     0.9595 S.o2    
  36 C36           10.1217    -9.1404     1.7510 C.3     
  37 O37            8.6033   -11.3267     1.9333 O.2     
  38 O38           10.0740   -11.1133    -0.0446 O.2     
  39 C39            6.2417    -8.8823    -2.9474 C.3     
  40 C40            6.7423    -8.9140     2.1399 C.3     
  41 C41           11.2994    -9.6741     2.5690 C.3     
  42 F42           12.1838   -10.3536     1.7245 F       
  43 F43           11.9653    -8.6058     3.1794 F       
  44 F44           10.8258   -10.5507     3.5510 F       
  45 H45           -1.4523     0.3135    -0.5262 H       
  46 H46           -1.4790    -2.1365    -0.7558 H       
  47 H47            1.9954    -2.4041     1.7222 H       
  48 H48            2.0229     0.0465     1.9458 H       
  49 H49           -0.6017    -4.2975     0.3428 H       
  50 H50            4.6380    -3.8780    -0.1355 H       
  51 H51            5.8919    -6.0347    -0.2912 H       
  52 H52            1.3783    -9.5738     0.6803 H       
  53 H53            0.5296    -8.0128     0.7863 H       
  54 H54            1.3356    -8.9488    -2.0104 H       
  55 H55           -0.7958     1.9631    -0.8885 H       
  56 H56           -2.7986     2.0560     0.2173 H       
  57 H57           -1.9361     1.9129     1.7752 H       
  58 H58           -2.1067     4.6680    -0.8482 H       
  59 H59           -1.3740     5.6885     0.4320 H       
  60 H60            0.4709     4.1681     0.7420 H       
  61 H61            0.2202     4.0686    -1.0319 H       
  62 H62           -4.2484     3.5567     1.8067 H       
  63 H63           -3.9094     5.2238     1.2833 H       
  64 H64           -4.1052     3.9334     0.0730 H       
  65 H65           -0.7937   -10.3201    -2.1522 H       
  66 H66           -1.0859   -10.0523    -0.3510 H       
  67 H67           -1.1636    -7.5464    -0.7361 H       
  68 H68           -0.8714    -7.8141    -2.5373 H       
  69 H69            8.5715   -10.2643    -1.9430 H       
  70 H70           10.4907    -8.4573     0.9858 H       
  71 H71            9.4326    -8.6109     2.4089 H       
  72 H72            6.6517    -7.9466    -3.3274 H       
  73 H73            6.5381    -9.7015    -3.6025 H       
  74 H74            5.1541    -8.8166    -2.9171 H       
  75 H75            6.1493    -9.7342     2.5446 H       
  76 H76            7.7013    -8.8697     2.6562 H       
  77 H77            6.2087    -7.9745     2.2834 H       
@<TRIPOS>BOND
   1    1    2 1
   2    1   23 1
   3    2    3 ar
   4    2    7 ar
   5    3    4 ar
   6    3   45 1
   7    4    5 ar
   8    4   46 1
   9    5    6 ar
  10    5    8 1
  11    6    7 ar
  12    6   47 1
  13    7   48 1
  14    8    9 1
  15    8   49 1
  16    9   10 ar
  17    9   14 ar
  18   10   11 ar
  19   11   12 ar
  20   11   15 1
  21   12   13 ar
  22   12   18 1
  23   13   14 ar
  24   13   50 1
  25   15   16 am
  26   15   19 1
  27   16   17 1
  28   16   21 2
  29   17   18 2
  30   17   22 1
  31   18   51 1
  32   19   20 1
  33   19   52 1
  34   19   53 1
  35   20   30 1
  36   20   31 1
  37   20   54 1
  38   22   32 2
  39   22   24 1
  40   23   25 1
  41   23   28 1
  42   23   55 1
  43   24   39 1
  44   24   34 2
  45   25   26 1
  46   25   56 1
  47   25   57 1
  48   26   27 1
  49   26   29 1
  50   27   28 1
  51   27   58 1
  52   27   59 1
  53   28   60 1
  54   28   61 1
  55   29   62 1
  56   29   63 1
  57   29   64 1
  58   30   31 1
  59   30   65 1
  60   30   66 1
  61   31   67 1
  62   31   68 1
  63   32   33 1
  64   32   40 1
  65   33   34 1
  66   33   35 am
  67   34   69 1
  68   35   36 1
  69   35   37 2
  70   35   38 2
  71   36   41 1
  72   36   70 1
  73   36   71 1
  74   39   72 1
  75   39   73 1
  76   39   74 1
  77   40   75 1
  78   40   76 1
  79   40   77 1
  80   41   42 1
  81   41   43 1
  82   41   44 1

#	End of record

