#	Name: ASD02770009
#	Creating user name:	WinNT
#	Creation time:	15. 06. 2019 20:26

#	Modifying user name:	WinNT
#	Modification time:	15. 06. 2019 20:26

#	Program:	/corina/corina34_cracker 3.40 0067  02.08.2006

@<TRIPOS>MOLECULE
ASD02770009
  44   44    0    0    0
SMALL
NO_CHARGES


@<TRIPOS>ATOM
   1 C1            -0.0184     1.5028     0.0103 C.2     
   2 C2             0.0021    -0.0041     0.0020 C.3     
   3 O3             1.0236     2.1234     0.0037 O.2     
   4 N4            -1.1946     2.1607     0.0195 N.am    
   5 O5             1.3556    -0.4620    -0.0134 O.3     
   6 C6             1.5521    -1.8079    -0.0225 C.ar    
   7 C7             1.6410    -2.4891    -1.2270 C.ar    
   8 C8             1.8408    -3.8579    -1.2339 C.ar    
   9 C9             1.9517    -4.5492    -0.0417 C.ar    
  10 C10            1.8635    -3.8757     1.1622 C.ar    
  11 C11            1.6700    -2.5034     1.1765 C.ar    
  12 O12            1.5895    -1.8389     2.3603 O.3     
  13 C13            1.7194    -2.6175     3.5515 C.3     
  14 Cl14           1.5011    -1.6245    -2.7258 Cl      
  15 C15            2.1688    -6.0404    -0.0547 C.3     
  16 N16            3.6099    -6.3253    -0.0707 N.3     
  17 C17            3.8602    -7.7727    -0.0837 C.3     
  18 C18            5.3458    -8.0255    -0.0999 C.ar    
  19 C19            6.0386    -8.1502     1.0898 C.ar    
  20 C20            7.4013    -8.3819     1.0750 C.ar    
  21 C21            8.0711    -8.4895    -0.1295 C.ar    
  22 C22            7.3781    -8.3657    -1.3192 C.ar    
  23 C23            6.0146    -8.1382    -1.3044 C.ar    
  24 H24           -0.4983    -0.3791     0.8948 H       
  25 H25           -0.5153    -0.3696    -0.8850 H       
  26 H26           -2.0280     1.6644     0.0207 H       
  27 H27           -1.2077     3.1306     0.0248 H       
  28 H28            1.9100    -4.3877    -2.1725 H       
  29 H29            1.9497    -4.4184     2.0920 H       
  30 H30            1.6366    -1.9667     4.4219 H       
  31 H31            0.9298    -3.3683     3.5827 H       
  32 H32            2.6910    -3.1117     3.5584 H       
  33 H33            1.7213    -6.4805     0.8364 H       
  34 H34            1.7042    -6.4674    -0.9434 H       
  35 H35            4.0591    -5.8736    -0.8531 H       
  36 H36            3.4244    -8.2249     0.8072 H       
  37 H37            3.4073    -8.2118    -0.9726 H       
  38 H38            5.5154    -8.0661     2.0308 H       
  39 H39            7.9428    -8.4787     2.0044 H       
  40 H40            9.1359    -8.6698    -0.1411 H       
  41 H41            7.9014    -8.4494    -2.2602 H       
  42 H42            5.4726    -8.0452    -2.2338 H       
  43 Cl43          14.1359     8.1306     9.4219 Cl      
  44 H44           14.1359     9.5006     9.4219 H       
@<TRIPOS>BOND
   1    1    2 1
   2    1    3 2
   3    1    4 am
   4    2    5 1
   5    2   24 1
   6    2   25 1
   7    4   26 1
   8    4   27 1
   9    5    6 1
  10    6    7 ar
  11    6   11 ar
  12    7    8 ar
  13    7   14 1
  14    8    9 ar
  15    8   28 1
  16    9   10 ar
  17    9   15 1
  18   10   11 ar
  19   10   29 1
  20   11   12 1
  21   12   13 1
  22   13   30 1
  23   13   31 1
  24   13   32 1
  25   15   16 1
  26   15   33 1
  27   15   34 1
  28   16   17 1
  29   16   35 1
  30   17   18 1
  31   17   36 1
  32   17   37 1
  33   18   19 ar
  34   18   23 ar
  35   19   20 ar
  36   19   38 1
  37   20   21 ar
  38   20   39 1
  39   21   22 ar
  40   21   40 1
  41   22   23 ar
  42   22   41 1
  43   23   42 1
  44   43   44 1

#	End of record

