#	Name: ASD01901217
#	Creating user name:	WinNT
#	Creation time:	15. 06. 2019 19:53

#	Modifying user name:	WinNT
#	Modification time:	15. 06. 2019 19:53

#	Program:	/corina/corina34_cracker 3.40 0067  02.08.2006

@<TRIPOS>MOLECULE
ASD01901217
  29   31    0    0    0
SMALL
NO_CHARGES


@<TRIPOS>ATOM
   1 C1            -0.0167     1.3813     0.0096 C.ar    
   2 C2             0.0021    -0.0041     0.0020 C.ar    
   3 C3             1.2035    -0.6807    -0.0127 C.ar    
   4 C4             2.4053     0.0332    -0.0204 C.ar    
   5 C5             2.3817     1.4313    -0.0131 C.ar    
   6 C6             1.1731     2.0974     0.0021 C.ar    
   7 C7             3.6558    -0.6645    -0.0352 C.1     
   8 C8             4.6809    -1.2365    -0.0473 C.1     
   9 C9             5.9314    -1.9343    -0.0621 C.ar    
  10 C10            7.2074    -1.2149    -0.0704 C.ar    
  11 C11            8.4063    -1.9682    -0.0850 C.ar    
  12 N12            8.3534    -3.3040    -0.0913 N.ar    
  13 C13            7.2204    -3.9629    -0.0844 C.ar    
  14 C14            5.9866    -3.3288    -0.0633 C.ar    
  15 C15            7.2621     0.1820    -0.0648 C.ar    
  16 C16            8.4740     0.8083    -0.0734 C.ar    
  17 C17            9.6559     0.0729    -0.0876 C.ar    
  18 C18            9.6366    -1.2888    -0.0930 C.ar    
  19 F19           -1.1973     2.0381     0.0188 F       
  20 F20            1.1474     3.4482     0.0097 F       
  21 H21           -0.9266    -0.5554     0.0080 H       
  22 H22            1.2159    -1.7606    -0.0179 H       
  23 H23            3.3069     1.9885    -0.0190 H       
  24 H24            7.2484    -5.0425    -0.0905 H       
  25 H25            5.0762    -3.9097    -0.0530 H       
  26 H26            6.3508     0.7615    -0.0541 H       
  27 H27            8.5170     1.8874    -0.0694 H       
  28 H28           10.6037     0.5907    -0.0942 H       
  29 H29           10.5627    -1.8443    -0.1038 H       
@<TRIPOS>BOND
   1    1    2 ar
   2    1    6 ar
   3    1   19 1
   4    2    3 ar
   5    2   21 1
   6    3    4 ar
   7    3   22 1
   8    4    5 ar
   9    4    7 1
  10    5    6 ar
  11    5   23 1
  12    6   20 1
  13    7    8 3
  14    8    9 1
  15    9   10 ar
  16    9   14 ar
  17   10   11 ar
  18   10   15 ar
  19   11   12 ar
  20   11   18 ar
  21   12   13 ar
  22   13   14 ar
  23   13   24 1
  24   14   25 1
  25   15   16 ar
  26   15   26 1
  27   16   17 ar
  28   16   27 1
  29   17   18 ar
  30   17   28 1
  31   18   29 1

#	End of record

