#	Name: ASD08070178
#	Creating user name:	WinNT
#	Creation time:	15. 06. 2019 21:14

#	Modifying user name:	WinNT
#	Modification time:	15. 06. 2019 21:14

#	Program:	/corina/corina34_cracker 3.40 0067  02.08.2006

@<TRIPOS>MOLECULE
ASD08070178
  44   45    0    0    0
SMALL
NO_CHARGES


@<TRIPOS>ATOM
   1 C1            -0.0167     1.3794     0.0096 C.ar    
   2 C2             0.0021    -0.0041     0.0020 C.ar    
   3 C3            -1.1814    -0.7130     0.0095 C.ar    
   4 C4            -2.3994    -0.0316     0.0253 C.ar    
   5 C5            -2.4112     1.3640     0.0333 C.ar    
   6 C6            -1.2206     2.0609     0.0306 C.ar    
   7 C7            -3.6715    -0.7850     0.0329 C.2     
   8 N8            -4.2625    -1.1213    -1.1308 N.am    
   9 C9            -3.7217     2.1080     0.0504 C.3     
  10 O10           -4.1844    -1.1010     1.0886 O.2     
  11 C11           -6.6928    -0.8920    -0.9804 C.3     
  12 C12           -5.5230    -1.8678    -1.1232 C.3     
  13 C13           -5.6578    -1.6654    -3.6098 C.3     
  14 C14           -5.6638    -2.6443    -2.4340 C.3     
  15 C15           -6.6868     0.0869    -2.1563 C.3     
  16 C16           -6.8275    -0.6896    -3.4671 C.3     
  17 C17           -4.4940    -3.6201    -2.5768 C.3     
  18 C18            1.2800     2.1473     0.0014 C.3     
  19 C19           -1.1591    -2.2199     0.0002 C.3     
  20 H20            0.9452    -0.5301    -0.0102 H       
  21 H21           -1.2284     3.1409     0.0368 H       
  22 H22           -3.8532    -0.8691    -1.9733 H       
  23 H23           -4.0276     2.2815     1.0821 H       
  24 H24           -3.6032     3.0643    -0.4592 H       
  25 H25           -4.4821     1.5164    -0.4594 H       
  26 H26           -7.6306    -1.4474    -0.9748 H       
  27 H27           -6.5925    -0.3388    -0.0466 H       
  28 H28           -5.5273    -2.5652    -0.2855 H       
  29 H29           -4.7199    -1.1100    -3.6155 H       
  30 H30           -5.7580    -2.2186    -4.5437 H       
  31 H31           -6.6016    -3.1997    -2.4284 H       
  32 H32           -7.5201     0.7821    -2.0545 H       
  33 H33           -5.7489     0.6423    -2.1619 H       
  34 H34           -6.8232     0.0078    -4.3047 H       
  35 H35           -7.7654    -1.2450    -3.4614 H       
  36 H36           -3.5561    -3.0647    -2.5824 H       
  37 H37           -4.4983    -4.3175    -1.7391 H       
  38 H38           -4.5943    -4.1733    -3.5106 H       
  39 H39            1.5828     2.3379    -1.0282 H       
  40 H40            1.1441     3.0954     0.5216 H       
  41 H41            2.0509     1.5639     0.5047 H       
  42 H42           -1.1435    -2.5893     1.0256 H       
  43 H43           -2.0486    -2.5933    -0.5071 H       
  44 H44           -0.2689    -2.5668    -0.5246 H       
@<TRIPOS>BOND
   1    1    2 ar
   2    1   18 1
   3    1    6 ar
   4    2    3 ar
   5    2   20 1
   6    3    4 ar
   7    3   19 1
   8    4    5 ar
   9    4    7 1
  10    5    6 ar
  11    5    9 1
  12    6   21 1
  13    7    8 am
  14    7   10 2
  15    8   12 1
  16    8   22 1
  17    9   23 1
  18    9   24 1
  19    9   25 1
  20   11   12 1
  21   11   15 1
  22   11   26 1
  23   11   27 1
  24   12   14 1
  25   12   28 1
  26   13   14 1
  27   13   16 1
  28   13   29 1
  29   13   30 1
  30   14   17 1
  31   14   31 1
  32   15   16 1
  33   15   32 1
  34   15   33 1
  35   16   34 1
  36   16   35 1
  37   17   36 1
  38   17   37 1
  39   17   38 1
  40   18   39 1
  41   18   40 1
  42   18   41 1
  43   19   42 1
  44   19   43 1
  45   19   44 1

#	End of record

