#	Name: ASD04230162
#	Creating user name:	WinNT
#	Creation time:	15. 06. 2019 20:48

#	Modifying user name:	WinNT
#	Modification time:	15. 06. 2019 20:48

#	Program:	/corina/corina34_cracker 3.40 0067  02.08.2006

@<TRIPOS>MOLECULE
ASD04230162
  48   52    0    0    0
SMALL
NO_CHARGES


@<TRIPOS>ATOM
   1 C1            -0.0271     1.5067     0.1202 C.ar    
   2 C2            -0.0407     0.4491     1.0185 C.ar    
   3 C3             1.1288    -0.0587     1.5095 C.ar    
   4 C4             2.3489     0.4903     1.1048 C.ar    
   5 C5             2.3732     1.5620     0.1948 C.ar    
   6 C6             1.1680     2.0651    -0.2939 C.ar    
   7 C7             3.7485     0.2048     1.4185 C.2     
   8 C8             4.4840     1.0930     0.7007 C.2     
   9 O9             3.6637     1.8883    -0.0170 O.3     
  10 C10            5.9512     1.1756     0.7055 C.2     
  11 O11            6.6014     0.4090     1.3908 O.2     
  12 N12            6.5765     2.1007    -0.0493 N.am    
  13 C13            7.9651     2.2443     0.0289 C.ar    
  14 C14            8.7705     1.1290     0.2187 C.ar    
  15 C15           10.1420     1.2743     0.2955 C.ar    
  16 C16           10.7131     2.5285     0.1836 C.ar    
  17 C17            9.9138     3.6414    -0.0055 C.ar    
  18 C18            8.5426     3.5023    -0.0889 C.ar    
  19 C19           10.5407     5.0064    -0.1269 C.3     
  20 N20           11.6702     5.1372     0.7990 N.2     
  21 C21           11.1740     5.1872    -1.5185 C.3     
  22 N22           12.6010     5.4016    -1.2234 N.pl3   
  23 C23           12.7852     5.3551     0.1338 C.2     
  24 C24           13.6528     5.6197    -2.0651 C.2     
  25 C25           14.9007     5.7946    -1.5842 C.2     
  26 C26           15.1325     5.7542    -0.1985 C.2     
  27 C27           14.0990     5.5382     0.6515 C.2     
  28 O28            1.1682     3.1008    -1.1749 O.3     
  29 C29           -0.1040     3.5634    -1.6326 C.3     
  30 H30           -0.9594     1.8946    -0.2629 H       
  31 H31           -0.9829     0.0244     1.3322 H       
  32 H32            1.1106    -0.8816     2.2087 H       
  33 H33            4.1218    -0.5576     2.0863 H       
  34 H34            6.0632     2.6668    -0.6467 H       
  35 H35            8.3250     0.1491     0.3065 H       
  36 H36           10.7688     0.4074     0.4434 H       
  37 H37           11.7857     2.6395     0.2443 H       
  38 H38            7.9190     4.3716    -0.2369 H       
  39 H39            9.8003     5.7837     0.0618 H       
  40 H40           11.0377     4.2895    -2.1216 H       
  41 H41           10.7516     6.0567    -2.0222 H       
  42 H42           13.4837     5.6522    -3.1312 H       
  43 H43           15.7221     5.9654    -2.2641 H       
  44 H44           16.1314     5.8938     0.1878 H       
  45 H45           14.2711     5.5065     1.7173 H       
  46 H46           -0.6948     3.9027    -0.7818 H       
  47 H47            0.0388     4.3900    -2.3286 H       
  48 H48           -0.6265     2.7502    -2.1365 H       
@<TRIPOS>BOND
   1    1    2 ar
   2    1    6 ar
   3    1   30 1
   4    2    3 ar
   5    2   31 1
   6    3    4 ar
   7    3   32 1
   8    4    5 ar
   9    4    7 1
  10    5    6 ar
  11    5    9 1
  12    6   28 1
  13    7    8 2
  14    7   33 1
  15    8    9 1
  16    8   10 1
  17   10   11 2
  18   10   12 am
  19   12   13 1
  20   12   34 1
  21   13   14 ar
  22   13   18 ar
  23   14   15 ar
  24   14   35 1
  25   15   16 ar
  26   15   36 1
  27   16   17 ar
  28   16   37 1
  29   17   18 ar
  30   17   19 1
  31   18   38 1
  32   19   20 1
  33   19   21 1
  34   19   39 1
  35   20   23 2
  36   21   22 1
  37   21   40 1
  38   21   41 1
  39   22   23 1
  40   22   24 1
  41   23   27 1
  42   24   25 2
  43   24   42 1
  44   25   26 1
  45   25   43 1
  46   26   27 2
  47   26   44 1
  48   27   45 1
  49   28   29 1
  50   29   46 1
  51   29   47 1
  52   29   48 1

#	End of record

