#	Name: ASD01813371
#	Creating user name:	WinNT
#	Creation time:	15. 06. 2019 19:30

#	Modifying user name:	WinNT
#	Modification time:	15. 06. 2019 19:30

#	Program:	/corina/corina34_cracker 3.40 0067  02.08.2006

@<TRIPOS>MOLECULE
ASD01813371
  50   54    0    0    0
SMALL
NO_CHARGES


@<TRIPOS>ATOM
   1 C1            -0.0169     1.3972     0.0097 C.2     
   2 C2             0.0021    -0.0041     0.0020 C.2     
   3 C3             1.1986    -0.6593    -0.0129 C.2     
   4 C4             2.3918     0.0821    -0.0204 C.2     
   5 N5             2.3437     1.4497    -0.0122 N.am    
   6 C6             1.1421     2.0937     0.0024 C.2     
   7 C7             3.6227    -0.5889    -0.0356 C.2     
   8 C8             4.7877     0.1218    -0.0425 C.2     
   9 C9             4.7345     1.5280    -0.0346 C.2     
  10 C10            3.4812     2.1736    -0.0189 C.2     
  11 O11            3.4258     3.3917    -0.0123 O.2     
  12 C12            5.9703     2.3140    -0.0413 C.2     
  13 O13            5.9124     3.6618    -0.0337 O.3     
  14 O14            7.0487     1.7516    -0.0537 O.2     
  15 C15            3.6593    -2.0954    -0.0439 C.3     
  16 C16            3.7837    -2.5946    -1.4848 C.3     
  17 N17            3.8194    -4.0631    -1.4929 N.3     
  18 C18            2.5364    -4.6248    -1.0370 C.3     
  19 C19            2.6032    -6.1254    -1.1709 C.2     
  20 C20            3.5354    -6.7688    -1.9230 C.2     
  21 C21            4.6024    -6.0480    -2.7096 C.3     
  22 C22            4.1892    -4.5736    -2.8203 C.3     
  23 N23            1.8131    -7.0549    -0.6137 N.pl3   
  24 N24            2.2715    -8.3142    -1.0310 N.2     
  25 C25            3.3061    -8.1359    -1.8172 C.2     
  26 C26            4.1060    -9.2226    -2.4883 C.3     
  27 C27            4.7974   -10.2490    -1.5886 C.3     
  28 C28            3.5666   -10.6518    -2.4034 C.3     
  29 H29           -0.9605     1.9226     0.0170 H       
  30 H30           -0.9233    -0.5609     0.0082 H       
  31 H31            1.2282    -1.7389    -0.0187 H       
  32 H32            1.1156     3.1733     0.0087 H       
  33 H33            5.7393    -0.3889    -0.0536 H       
  34 H34            6.7544     4.1373    -0.0385 H       
  35 H35            4.5153    -2.4412     0.5356 H       
  36 H36            2.7412    -2.4836     0.3971 H       
  37 H37            2.9277    -2.2488    -2.0643 H       
  38 H38            4.7018    -2.2064    -1.9259 H       
  39 H39            2.3673    -4.3561     0.0057 H       
  40 H40            1.7255    -4.2366    -1.6533 H       
  41 H41            5.5584    -6.1256    -2.1918 H       
  42 H42            4.6847    -6.4838    -3.7053 H       
  43 H43            3.3365    -4.4853    -3.4935 H       
  44 H44            5.0228    -3.9917    -3.2133 H       
  45 H45            1.0594    -6.8868    -0.0266 H       
  46 H46            4.6182    -8.9312    -3.4053 H       
  47 H47            5.7641   -10.6332    -1.9139 H       
  48 H48            4.6736   -10.1383    -0.5113 H       
  49 H49            2.6331   -10.8061    -1.8622 H       
  50 H50            3.7237   -11.3010    -3.2647 H       
@<TRIPOS>BOND
   1    1    2 1
   2    1    6 2
   3    1   29 1
   4    2    3 2
   5    2   30 1
   6    3    4 1
   7    3   31 1
   8    4    5 1
   9    4    7 2
  10    5    6 1
  11    5   10 am
  12    6   32 1
  13    7    8 1
  14    7   15 1
  15    8    9 2
  16    8   33 1
  17    9   10 1
  18    9   12 1
  19   10   11 2
  20   12   13 1
  21   12   14 2
  22   13   34 1
  23   15   16 1
  24   15   35 1
  25   15   36 1
  26   16   17 1
  27   16   37 1
  28   16   38 1
  29   17   18 1
  30   17   22 1
  31   18   19 1
  32   18   39 1
  33   18   40 1
  34   19   20 2
  35   19   23 1
  36   20   21 1
  37   20   25 1
  38   21   22 1
  39   21   41 1
  40   21   42 1
  41   22   43 1
  42   22   44 1
  43   23   24 1
  44   23   45 1
  45   24   25 2
  46   25   26 1
  47   26   27 1
  48   26   28 1
  49   26   46 1
  50   27   28 1
  51   27   47 1
  52   27   48 1
  53   28   49 1
  54   28   50 1

#	End of record

