#	Name: ASD01230695
#	Creating user name:	WinNT
#	Creation time:	15. 06. 2019 19:14

#	Modifying user name:	WinNT
#	Modification time:	15. 06. 2019 19:14

#	Program:	/corina/corina34_cracker 3.40 0067  02.08.2006

@<TRIPOS>MOLECULE
ASD01230695
  33   34    0    0    0
SMALL
NO_CHARGES


@<TRIPOS>ATOM
   1 C1            -0.0142     1.3949     0.0034 C.ar    
   2 C2             0.0040    -0.0072     0.0045 C.ar    
   3 C3             1.2340    -0.6644    -0.0013 C.ar    
   4 C4             2.3903     0.1007    -0.0080 C.ar    
   5 C5             2.2930     1.4784    -0.0087 C.ar    
   6 N6             1.1177     2.0795    -0.0031 N.ar    
   7 N7            -1.2279     2.0690     0.0034 N.pl3   
   8 C8            -1.2628    -0.7779     0.0123 C.ar    
   9 C9            -1.4617    -1.8042    -0.9100 C.ar    
  10 C10           -2.6409    -2.5194    -0.8999 C.ar    
  11 C11           -3.6292    -2.2183     0.0274 C.ar    
  12 C12           -3.4342    -1.1968     0.9470 C.ar    
  13 C13           -2.2551    -0.4814     0.9455 C.ar    
  14 O14           -4.7901    -2.9245     0.0345 O.3     
  15 C15           -4.9748    -3.8798    -1.0122 C.3     
  16 C16           -4.3078    -5.2000    -0.6212 C.3     
  17 C17           -6.4709    -4.1104    -1.2341 C.3     
  18 H18            1.2847    -1.7432    -0.0003 H       
  19 H19            3.3590    -0.3768    -0.0123 H       
  20 H20            3.1938     2.0741    -0.0135 H       
  21 H21           -2.0597     1.5701     0.0041 H       
  22 H22           -1.2440     3.0389     0.0026 H       
  23 H23           -0.6934    -2.0388    -1.6318 H       
  24 H24           -2.7957    -3.3145    -1.6143 H       
  25 H25           -4.2051    -0.9646     1.6669 H       
  26 H26           -2.1022     0.3102     1.6641 H       
  27 H27           -4.5249    -3.5036    -1.9310 H       
  28 H28           -4.4486    -5.9287    -1.4195 H       
  29 H29           -3.2419    -5.0358    -0.4631 H       
  30 H30           -4.7576    -5.5762     0.2977 H       
  31 H31           -6.9461    -3.1698    -1.5126 H       
  32 H32           -6.6118    -4.8390    -2.0324 H       
  33 H33           -6.9208    -4.4866    -0.3152 H       
@<TRIPOS>BOND
   1    1    2 ar
   2    1    6 ar
   3    1    7 1
   4    2    3 ar
   5    2    8 1
   6    3    4 ar
   7    3   18 1
   8    4    5 ar
   9    4   19 1
  10    5    6 ar
  11    5   20 1
  12    7   21 1
  13    7   22 1
  14    8    9 ar
  15    8   13 ar
  16    9   10 ar
  17    9   23 1
  18   10   11 ar
  19   10   24 1
  20   11   12 ar
  21   11   14 1
  22   12   13 ar
  23   12   25 1
  24   13   26 1
  25   14   15 1
  26   15   16 1
  27   15   17 1
  28   15   27 1
  29   16   28 1
  30   16   29 1
  31   16   30 1
  32   17   31 1
  33   17   32 1
  34   17   33 1

#	End of record

