#	Name: ASD02030038
#	Creating user name:	WinNT
#	Creation time:	15. 06. 2019 20:14

#	Modifying user name:	WinNT
#	Modification time:	15. 06. 2019 20:14

#	Program:	/corina/corina34_cracker 3.40 0067  02.08.2006

@<TRIPOS>MOLECULE
ASD02030038
  49   51    0    0    0
SMALL
NO_CHARGES


@<TRIPOS>ATOM
   1 N1            -0.1414     1.5389    -0.0809 N.am    
   2 C2             0.0313     0.2023    -0.0837 C.2     
   3 C3            -1.1354    -0.6929     0.0419 C.ar    
   4 O4             1.1484    -0.2661    -0.1896 O.2     
   5 C5            -0.9585    -2.0790     0.0392 C.ar    
   6 C6            -2.0497    -2.9108     0.1570 C.ar    
   7 C7            -3.3257    -2.3733     0.2785 C.ar    
   8 C8            -3.5060    -0.9953     0.2816 C.ar    
   9 C9            -2.4194    -0.1565     0.1695 C.ar    
  10 O10           -4.3988    -3.1967     0.3940 O.3     
  11 C11           -5.2859    -3.1920    -0.6211 C.2     
  12 N12           -6.4266    -3.9029    -0.5224 N.am    
  13 S13           -4.9634    -2.2828    -2.0354 S.2     
  14 C14           -7.3906    -3.8977    -1.6256 C.3     
  15 C15           -6.7026    -4.6808     0.6879 C.3     
  16 C16            0.9667     2.3857    -0.1242 C.ar    
  17 C17            2.1488     1.9555    -0.6871 C.ar    
  18 C18            3.2600     2.7924    -0.7353 C.ar    
  19 C19            3.2112     4.0555    -0.2296 C.ar    
  20 C20            2.0244     4.5330     0.3526 C.ar    
  21 C21            0.8853     3.6926     0.4028 C.ar    
  22 C22            1.9449     5.8325     0.8826 C.ar    
  23 C23            0.7799     6.2627     1.4393 C.ar    
  24 C24           -0.3387     5.4334     1.4926 C.ar    
  25 C25           -0.2993     4.1709     0.9842 C.ar    
  26 C26           -7.0651    -5.0377    -2.5927 C.3     
  27 C27           -7.4598    -3.8099     1.6924 C.3     
  28 H28           -1.0363     1.9123    -0.0527 H       
  29 H29            0.0327    -2.4974    -0.0556 H       
  30 H30           -1.9139    -3.9822     0.1546 H       
  31 H31           -4.4991    -0.5816     0.3762 H       
  32 H32           -2.5604     0.9143     0.1720 H       
  33 H33           -8.3969    -4.0336    -1.2293 H       
  34 H34           -7.3335    -2.9458    -2.1535 H       
  35 H35           -7.3085    -5.5497     0.4310 H       
  36 H36           -5.7625    -5.0113     1.1296 H       
  37 H37            2.2139     0.9577    -1.0951 H       
  38 H38            4.1761     2.4337    -1.1809 H       
  39 H39            4.0840     4.6900    -0.2755 H       
  40 H40            2.8041     6.4860     0.8485 H       
  41 H41            0.7215     7.2615     1.8462 H       
  42 H42           -1.2513     5.7989     1.9397 H       
  43 H43           -1.1738     3.5390     1.0323 H       
  44 H44           -7.7823    -5.0338    -3.4135 H       
  45 H45           -6.0588    -4.9018    -2.9890 H       
  46 H46           -7.1222    -5.9896    -2.0647 H       
  47 H47           -7.6651    -4.3887     2.5929 H       
  48 H48           -6.8538    -2.9410     1.9492 H       
  49 H49           -8.3999    -3.4795     1.2506 H       
@<TRIPOS>BOND
   1    1    2 am
   2    1   16 1
   3    1   28 1
   4    2    3 1
   5    2    4 2
   6    3    5 ar
   7    3    9 ar
   8    5    6 ar
   9    5   29 1
  10    6    7 ar
  11    6   30 1
  12    7    8 ar
  13    7   10 1
  14    8    9 ar
  15    8   31 1
  16    9   32 1
  17   10   11 1
  18   11   12 am
  19   11   13 2
  20   12   14 1
  21   12   15 1
  22   14   26 1
  23   14   33 1
  24   14   34 1
  25   15   27 1
  26   15   35 1
  27   15   36 1
  28   16   17 ar
  29   16   21 ar
  30   17   18 ar
  31   17   37 1
  32   18   19 ar
  33   18   38 1
  34   19   20 ar
  35   19   39 1
  36   20   21 ar
  37   20   22 ar
  38   21   25 ar
  39   22   23 ar
  40   22   40 1
  41   23   24 ar
  42   23   41 1
  43   24   25 ar
  44   24   42 1
  45   25   43 1
  46   26   44 1
  47   26   45 1
  48   26   46 1
  49   27   47 1
  50   27   48 1
  51   27   49 1

#	End of record

