#	Name: ASD03240296
#	Creating user name:	WinNT
#	Creation time:	15. 06. 2019 20:34

#	Modifying user name:	WinNT
#	Modification time:	15. 06. 2019 20:34

#	Program:	/corina/corina34_cracker 3.40 0067  02.08.2006

@<TRIPOS>MOLECULE
ASD03240296
 105  109    0    0    0
SMALL
NO_CHARGES


@<TRIPOS>ATOM
   1 C1            -0.9152     0.3886    -1.9537 C.2     
   2 N2            -0.5339    -0.5872    -1.0634 N.pl3   
   3 O3            -4.1181     2.6969    -1.3358 O.2     
   4 C4            -3.9585     1.9030    -0.4330 C.2     
   5 C5            -2.8022     0.9374    -0.4743 C.3     
   6 N6            -2.0255     1.1577    -1.6967 N.pl3   
   7 N7            -0.2210     0.5882    -3.0387 N.2     
   8 N8            -4.8153     1.8842     0.6072 N.am    
   9 C9            -5.8167     2.8476     0.7021 C.ar    
  10 C10           -7.0627     2.5116     1.2498 C.ar    
  11 C11           -8.0584     3.4746     1.3428 C.ar    
  12 C12           -7.8130     4.7719     0.8905 C.ar    
  13 C13           -6.5673     5.0978     0.3459 C.ar    
  14 C14           -5.5783     4.1429     0.2593 C.ar    
  15 C15           -8.8683     5.7993     0.9867 C.2     
  16 N16           -8.6309     7.0520     0.5498 N.am    
  17 O17           -9.9518     5.5155     1.4601 O.2     
  18 C18           -9.6675     7.9940     0.5269 C.ar    
  19 C19           -9.3762     9.3491     0.6119 C.ar    
  20 C20          -10.9859     7.5729     0.4136 C.ar    
  21 C21          -12.0076     8.5011     0.3911 C.ar    
  22 C22          -11.7168     9.8562     0.4818 C.ar    
  23 C23          -10.3977    10.2776     0.5894 C.ar    
  24 N24          -12.7520    10.7969     0.4585 N.pl3   
  25 C25          -12.4452    12.2262     0.5541 C.3     
  26 C26          -14.1429    10.3527     0.3384 C.3     
  27 C27           -7.3168     1.1307     1.7281 C.ar    
  28 C28           -7.8500     0.9174     2.9979 C.ar    
  29 C29           -8.0848    -0.3696     3.4375 C.ar    
  30 C30           -7.7919    -1.4466     2.6204 C.ar    
  31 C31           -7.2621    -1.2408     1.3593 C.ar    
  32 C32           -7.0286     0.0421     0.9071 C.ar    
  33 C33          -14.7185    10.1269     1.7127 C.ar    
  34 C34          -12.2412    12.7899    -0.8285 C.ar    
  35 C35          -15.3492    11.1624     2.3766 C.ar    
  36 C36          -15.8772    10.9552     3.6372 C.ar    
  37 C37          -15.7749     9.7124     4.2337 C.ar    
  38 C38          -15.1450     8.6766     3.5694 C.ar    
  39 C39          -14.6208     8.8826     2.3070 C.ar    
  40 C40          -13.3154    13.3036    -1.5309 C.ar    
  41 C41          -13.1283    13.8206    -2.7992 C.ar    
  42 C42          -11.8671    13.8243    -3.3650 C.ar    
  43 C43          -10.7928    13.3114    -2.6623 C.ar    
  44 C44          -10.9791    12.7983    -1.3923 C.ar    
  45 C45          -16.3496     9.4868     5.6085 C.3     
  46 C46          -11.6633    14.3870    -4.7481 C.3     
  47 C47          -10.6739    15.5522    -4.6839 C.3     
  48 C48          -11.1077    13.2961    -5.6657 C.3     
  49 C49          -17.4135     8.3893     5.5426 C.3     
  50 C50          -15.2337     9.0589     6.5638 C.3     
  51 C51           -8.0505    -2.8496     3.1061 C.3     
  52 C52           -9.0446    -3.5385     2.1692 C.3     
  53 C53           -6.7370    -3.6340     3.1221 C.3     
  54 H54            0.2518    -1.1271    -1.2427 H       
  55 H55           -1.0505    -0.7357    -0.2560 H       
  56 H56           -2.1644     1.0969     0.3951 H       
  57 H57           -3.1816    -0.0844    -0.4640 H       
  58 H58           -2.2945     1.8462    -2.3248 H       
  59 H59            0.5646     0.0483    -3.2180 H       
  60 H60           -4.7347     1.1996     1.2897 H       
  61 H61           -9.0201     3.2206     1.7636 H       
  62 H62           -6.3784     6.1020    -0.0039 H       
  63 H63           -4.6177     4.3995    -0.1622 H       
  64 H64           -7.7424     7.3014     0.2512 H       
  65 H65           -8.3505     9.6767     0.6960 H       
  66 H66          -11.2120     6.5192     0.3427 H       
  67 H67          -13.0330     8.1736     0.3025 H       
  68 H68          -10.1715    11.3312     0.6603 H       
  69 H69          -13.2728    12.7438     1.0391 H       
  70 H70          -11.5367    12.3644     1.1404 H       
  71 H71          -14.7247    11.1160    -0.1783 H       
  72 H72          -14.1795     9.4223    -0.2283 H       
  73 H73           -8.0787     1.7575     3.6368 H       
  74 H74           -8.4977    -0.5361     4.4215 H       
  75 H75           -7.0350    -2.0854     0.7257 H       
  76 H76           -6.6149     0.2017    -0.0777 H       
  77 H77          -15.4291    12.1334     1.9105 H       
  78 H78          -16.3693    11.7645     4.1562 H       
  79 H79          -15.0647     7.7058     4.0356 H       
  80 H80          -14.1287     8.0734     1.7880 H       
  81 H81          -14.3007    13.3007    -1.0888 H       
  82 H82          -13.9676    14.2213    -3.3482 H       
  83 H83           -9.8075    13.3139    -3.1045 H       
  84 H84          -10.1398    12.3976    -0.8433 H       
  85 H85          -16.8022    10.4105     5.9691 H       
  86 H86          -12.6167    14.7410    -5.1403 H       
  87 H87           -9.7205    15.1981    -4.2916 H       
  88 H88          -10.5265    15.9592    -5.6843 H       
  89 H89          -11.0696    16.3294    -4.0301 H       
  90 H90          -11.8127    12.4659    -5.7114 H       
  91 H91          -10.9604    13.7031    -6.6661 H       
  92 H92          -10.1544    12.9420    -5.2735 H       
  93 H93          -17.8292     8.2261     6.5370 H       
  94 H94          -18.2084     8.6942     4.8621 H       
  95 H95          -16.9608     7.4656     5.1820 H       
  96 H96          -14.4758     9.8408     6.6107 H       
  97 H97          -15.6494     8.8957     7.5581 H       
  98 H98          -14.7811     8.1352     6.2032 H       
  99 H99           -8.4651    -2.8146     4.1136 H       
 100 H100          -8.6300    -3.5735     1.1617 H       
 101 H101          -9.2317    -4.5533     2.5205 H       
 102 H102          -9.9804    -2.9797     2.1578 H       
 103 H103          -6.0288    -3.1431     3.7897 H       
 104 H104          -6.9240    -4.6487     3.4735 H       
 105 H105          -6.3224    -3.6689     2.1147 H       
@<TRIPOS>BOND
   1    1    2 1
   2    1    7 2
   3    1    6 1
   4    2   54 1
   5    2   55 1
   6    3    4 2
   7    4    5 1
   8    4    8 am
   9    5    6 1
  10    5   56 1
  11    5   57 1
  12    6   58 1
  13    7   59 1
  14    8    9 1
  15    8   60 1
  16    9   10 ar
  17    9   14 ar
  18   10   11 ar
  19   10   27 1
  20   11   12 ar
  21   11   61 1
  22   12   13 ar
  23   12   15 1
  24   13   14 ar
  25   13   62 1
  26   14   63 1
  27   15   16 am
  28   15   17 2
  29   16   18 1
  30   16   64 1
  31   18   19 ar
  32   18   20 ar
  33   19   23 ar
  34   19   65 1
  35   20   21 ar
  36   20   66 1
  37   21   22 ar
  38   21   67 1
  39   22   23 ar
  40   22   24 1
  41   23   68 1
  42   24   25 1
  43   24   26 1
  44   25   34 1
  45   25   69 1
  46   25   70 1
  47   26   33 1
  48   26   71 1
  49   26   72 1
  50   27   28 ar
  51   27   32 ar
  52   28   29 ar
  53   28   73 1
  54   29   30 ar
  55   29   74 1
  56   30   31 ar
  57   30   51 1
  58   31   32 ar
  59   31   75 1
  60   32   76 1
  61   33   35 ar
  62   33   39 ar
  63   34   40 ar
  64   34   44 ar
  65   35   36 ar
  66   35   77 1
  67   36   37 ar
  68   36   78 1
  69   37   38 ar
  70   37   45 1
  71   38   39 ar
  72   38   79 1
  73   39   80 1
  74   40   41 ar
  75   40   81 1
  76   41   42 ar
  77   41   82 1
  78   42   43 ar
  79   42   46 1
  80   43   44 ar
  81   43   83 1
  82   44   84 1
  83   45   49 1
  84   45   50 1
  85   45   85 1
  86   46   47 1
  87   46   48 1
  88   46   86 1
  89   47   87 1
  90   47   88 1
  91   47   89 1
  92   48   90 1
  93   48   91 1
  94   48   92 1
  95   49   93 1
  96   49   94 1
  97   49   95 1
  98   50   96 1
  99   50   97 1
 100   50   98 1
 101   51   52 1
 102   51   53 1
 103   51   99 1
 104   52  100 1
 105   52  101 1
 106   52  102 1
 107   53  103 1
 108   53  104 1
 109   53  105 1

#	End of record

