#	Name: ASD01812729
#	Creating user name:	WinNT
#	Creation time:	15. 06. 2019 19:29

#	Modifying user name:	WinNT
#	Modification time:	15. 06. 2019 19:29

#	Program:	/corina/corina34_cracker 3.40 0067  02.08.2006

@<TRIPOS>MOLECULE
ASD01812729
  57   61    0    0    0
SMALL
NO_CHARGES


@<TRIPOS>ATOM
   1 N1            -0.0158     1.3147     0.0093 N.ar    
   2 C2             0.0021    -0.0041     0.0020 C.ar    
   3 C3             1.1989    -0.7033    -0.0127 C.ar    
   4 C4             2.3829    -0.0013    -0.0202 C.ar    
   5 C5             2.3448     1.3978    -0.0128 C.ar    
   6 C6             1.0955     2.0332     0.0025 C.ar    
   7 C7             3.8373    -0.3889    -0.0363 C.3     
   8 N8             4.5955     0.8684    -0.0373 N.am    
   9 C9             3.7280     1.8961    -0.0237 C.2     
  10 C10            6.0558     0.9844    -0.0504 C.3     
  11 C11            6.5432     1.0311    -1.4757 C.ar    
  12 C12            6.6712     2.2480    -2.1207 C.ar    
  13 C13            7.1176     2.2965    -3.4258 C.ar    
  14 C14            7.4395     1.1169    -4.0936 C.ar    
  15 C15            7.3087    -0.1061    -3.4391 C.ar    
  16 C16            6.8664    -0.1427    -2.1321 C.ar    
  17 O17            1.0255     3.3856     0.0100 O.3     
  18 O18            4.0429     3.0706    -0.0212 O.2     
  19 C19           -0.2795     3.9677     0.0251 C.3     
  20 C20           -0.1576     5.4928     0.0317 C.3     
  21 O21            0.4365     5.9287    -1.1927 O.3     
  22 C22            0.6210     7.3431    -1.2807 C.3     
  23 C23           -0.7392     8.0401    -1.1929 C.3     
  24 C24           -1.4250     7.6413     0.1175 C.3     
  25 C25           -1.5491     6.1156     0.1722 C.3     
  26 N26            8.0858     2.2478    -6.2236 N.2     
  27 C27            7.9195     1.1628    -5.4972 C.2     
  28 C28            8.2776     0.0531    -6.2873 C.2     
  29 C29            8.6594     0.5132    -7.4986 C.2     
  30 N30            8.5510     1.8592    -7.4864 N.pl3   
  31 C31            8.8646     2.7570    -8.6007 C.3     
  32 H32           -0.9309    -0.5480     0.0080 H       
  33 H33            1.2023    -1.7833    -0.0178 H       
  34 H34            4.0797    -0.9721     0.8522 H       
  35 H35            4.0624    -0.9631    -0.9351 H       
  36 H36            6.3524     1.8979     0.4651 H       
  37 H37            6.4932     0.1235     0.4552 H       
  38 H38            6.4210     3.1618    -1.6022 H       
  39 H39            7.2168     3.2472    -3.9286 H       
  40 H40            7.5569    -1.0235    -3.9521 H       
  41 H41            6.7686    -1.0899    -1.6225 H       
  42 H42           -0.8289     3.6509    -0.8614 H       
  43 H43           -0.8123     3.6419     0.9185 H       
  44 H44            0.4664     5.8040     0.8695 H       
  45 H45            1.2551     7.6786    -0.4600 H       
  46 H46            1.0951     7.5894    -2.2308 H       
  47 H47           -0.5969     9.1206    -1.2154 H       
  48 H48           -1.3595     7.7359    -2.0359 H       
  49 H49           -0.8292     7.9892     0.9614 H       
  50 H50           -2.4175     8.0897     0.1607 H       
  51 H51           -2.1857     5.7724    -0.6433 H       
  52 H52           -1.9860     5.8196     1.1259 H       
  53 H53            8.2521    -0.9816    -5.9791 H       
  54 H54            8.9926    -0.0894    -8.3306 H       
  55 H55            9.9115     3.0550    -8.5437 H       
  56 H56            8.6844     2.2419    -9.5442 H       
  57 H57            8.2312     3.6423    -8.5434 H       
@<TRIPOS>BOND
   1    1    2 ar
   2    1    6 ar
   3    2    3 ar
   4    2   32 1
   5    3    4 ar
   6    3   33 1
   7    4    7 1
   8    4    5 ar
   9    5    6 ar
  10    5    9 1
  11    6   17 1
  12    7    8 1
  13    7   34 1
  14    7   35 1
  15    8    9 am
  16    8   10 1
  17    9   18 2
  18   10   11 1
  19   10   36 1
  20   10   37 1
  21   11   12 ar
  22   11   16 ar
  23   12   13 ar
  24   12   38 1
  25   13   14 ar
  26   13   39 1
  27   14   15 ar
  28   14   27 1
  29   15   16 ar
  30   15   40 1
  31   16   41 1
  32   17   19 1
  33   19   20 1
  34   19   42 1
  35   19   43 1
  36   20   21 1
  37   20   25 1
  38   20   44 1
  39   21   22 1
  40   22   23 1
  41   22   45 1
  42   22   46 1
  43   23   24 1
  44   23   47 1
  45   23   48 1
  46   24   25 1
  47   24   49 1
  48   24   50 1
  49   25   51 1
  50   25   52 1
  51   26   27 2
  52   26   30 1
  53   27   28 1
  54   28   29 2
  55   28   53 1
  56   29   30 1
  57   29   54 1
  58   30   31 1
  59   31   55 1
  60   31   56 1
  61   31   57 1

#	End of record

