#	Name: ASD02770032
#	Creating user name:	WinNT
#	Creation time:	15. 06. 2019 20:26

#	Modifying user name:	WinNT
#	Modification time:	15. 06. 2019 20:26

#	Program:	/corina/corina34_cracker 3.40 0067  02.08.2006

@<TRIPOS>MOLECULE
ASD02770032
  36   36    0    0    0
SMALL
NO_CHARGES


@<TRIPOS>ATOM
   1 C1            -0.0165     1.3685     0.0096 C.2     
   2 C2             0.0021    -0.0041     0.0020 C.2     
   3 C3             1.3431    -0.5457    -0.0137 C.2     
   4 C4             2.2832     0.3889    -0.0177 C.2     
   5 S5             1.5698     1.9918    -0.0022 S.3     
   6 C6            -1.2063    -0.8313     0.0096 C.2     
   7 O7            -1.7184    -1.1695    -1.0406 O.2     
   8 O8            -1.7515    -1.2181     1.1811 O.3     
   9 C9             3.7644     0.1120    -0.0333 C.3     
  10 C10            1.6415    -2.0229    -0.0245 C.3     
  11 N11           -1.1652     2.1399     0.0194 N.am    
  12 C12           -1.0738     3.4846     0.0263 C.2     
  13 C13           -2.2985     4.3071     0.0367 C.2     
  14 C14           -2.2074     5.6469     0.0436 C.2     
  15 C15           -3.4325     6.4697     0.0540 C.2     
  16 O16            0.0177     4.0196     0.0238 O.2     
  17 O17           -4.5239     5.9347     0.0565 O.2     
  18 N18           -3.3412     7.8143     0.0609 N.am    
  19 C19           -2.9488    -2.0368     1.1126 C.3     
  20 C20           -3.4176    -2.3742     2.5293 C.3     
  21 H21            4.1118     0.0508    -1.0647 H       
  22 H22            4.2900     0.9173     0.4799 H       
  23 H23            3.9630    -0.8323     0.4736 H       
  24 H24            1.7036    -2.3735    -1.0547 H       
  25 H25            2.5906    -2.2056     0.4793 H       
  26 H26            0.8460    -2.5580     0.4941 H       
  27 H27           -2.0362     1.7130     0.0213 H       
  28 H28           -3.2682     3.8317     0.0389 H       
  29 H29           -1.2377     6.1223     0.0414 H       
  30 H30           -2.4702     8.2413     0.0589 H       
  31 H31           -4.1464     8.3551     0.0678 H       
  32 H32           -3.7338    -1.4895     0.5907 H       
  33 H33           -2.7285    -2.9582     0.5737 H       
  34 H34           -4.3164    -2.9887     2.4779 H       
  35 H35           -2.6326    -2.9215     3.0512 H       
  36 H36           -3.6380    -1.4527     3.0683 H       
@<TRIPOS>BOND
   1    1    2 2
   2    1    5 1
   3    1   11 1
   4    2    3 1
   5    2    6 1
   6    3    4 2
   7    3   10 1
   8    4    5 1
   9    4    9 1
  10    6    7 2
  11    6    8 1
  12    8   19 1
  13    9   21 1
  14    9   22 1
  15    9   23 1
  16   10   24 1
  17   10   25 1
  18   10   26 1
  19   11   12 am
  20   11   27 1
  21   12   13 1
  22   12   16 2
  23   13   14 2
  24   13   28 1
  25   14   15 1
  26   14   29 1
  27   15   17 2
  28   15   18 am
  29   18   30 1
  30   18   31 1
  31   19   20 1
  32   19   32 1
  33   19   33 1
  34   20   34 1
  35   20   35 1
  36   20   36 1

#	End of record

