#	Name: ASD03240182
#	Creating user name:	WinNT
#	Creation time:	15. 06. 2019 20:34

#	Modifying user name:	WinNT
#	Modification time:	15. 06. 2019 20:34

#	Program:	/corina/corina34_cracker 3.40 0067  02.08.2006

@<TRIPOS>MOLECULE
ASD03240182
  73   80    0    0    0
SMALL
NO_CHARGES


@<TRIPOS>ATOM
   1 C1            -0.0171     1.4111     0.0098 C.ar    
   2 C2             0.0021    -0.0041     0.0020 C.ar    
   3 C3             1.1858     2.1159     0.0021 C.ar    
   4 C4             2.3723     1.3858    -0.0131 C.ar    
   5 C5             2.3149    -0.0212    -0.0202 C.ar    
   6 N6             1.1558    -0.6601    -0.0125 N.ar    
   7 C7             3.5747    -0.8003    -0.0369 C.ar    
   8 C8             3.6804     2.0823    -0.0224 C.ar    
   9 C9             3.9249     3.1001    -0.9435 C.ar    
  10 C10            5.1447     3.7453    -0.9470 C.ar    
  11 C11            6.1239     3.3841    -0.0390 C.ar    
  12 C12            5.8871     2.3751     0.8772 C.ar    
  13 C13            4.6693     1.7262     0.8938 C.ar    
  14 C14            3.6572    -2.0126     0.6477 C.ar    
  15 C15            4.8335    -2.7338     0.6284 C.ar    
  16 C16            5.9296    -2.2564    -0.0677 C.ar    
  17 C17            5.8539    -1.0543    -0.7482 C.ar    
  18 C18            4.6811    -0.3273    -0.7419 C.ar    
  19 C19            7.2113    -3.0488    -0.0842 C.3     
  20 N20            7.1992    -3.9758    -1.2237 N.3     
  21 C21            8.5180    -4.5930    -1.4140 C.3     
  22 C22            8.5084    -5.4367    -2.6907 C.3     
  23 C23            7.4303    -6.5177    -2.5742 C.3     
  24 C24            6.0742    -5.8506    -2.3282 C.3     
  25 C25            6.1544    -4.9949    -1.0619 C.3     
  26 C26            7.3753    -7.3140    -3.8524 C.2     
  27 N27            7.1133    -6.8268    -5.0382 N.2     
  28 N28            7.1623    -7.9003    -5.9424 N.pl3   
  29 C29            7.4611    -8.9979    -5.2106 C.2     
  30 N30            7.5909    -8.6217    -3.9548 N.2     
  31 C31            7.6195   -10.3752    -5.7291 C.ar    
  32 N32            7.4652   -10.6123    -7.0261 N.ar    
  33 C33            7.5977   -11.8230    -7.5271 C.ar    
  34 C34            7.9042   -12.8989    -6.7135 C.ar    
  35 C35            8.0741   -12.6959    -5.3513 C.ar    
  36 C36            7.9352   -11.4123    -4.8522 C.ar    
  37 C37           -1.2798    -0.7167     0.0109 C.2     
  38 C38           -2.4298    -0.0306     0.0261 C.2     
  39 N39           -2.4690     1.3404     0.0334 N.pl3   
  40 C40           -1.3145     2.0933     0.0319 C.2     
  41 C41           -3.4949     2.2439     0.0479 C.2     
  42 N42           -2.9585     3.4435     0.0487 N.2     
  43 N43           -1.6753     3.3567     0.0401 N.2     
  44 S44           -5.2166     1.8693     0.0623 S.3     
  45 H45            1.1975     3.1958     0.0074 H       
  46 H46            3.1613     3.3826    -1.6530 H       
  47 H47            5.3354     4.5335    -1.6602 H       
  48 H48            7.0772     3.8917    -0.0457 H       
  49 H49            6.6554     2.0974     1.5837 H       
  50 H50            4.4856     0.9386     1.6095 H       
  51 H51            2.8024    -2.3860     1.1920 H       
  52 H52            4.8986    -3.6727     1.1581 H       
  53 H53            6.7131    -0.6865    -1.2896 H       
  54 H54            4.6232     0.6108    -1.2739 H       
  55 H55            8.0578    -2.3685    -0.1782 H       
  56 H56            7.3009    -3.6143     0.8433 H       
  57 H57            9.2750    -3.8133    -1.4996 H       
  58 H58            8.7477    -5.2297    -0.5596 H       
  59 H59            8.2924    -4.7982    -3.5473 H       
  60 H60            9.4827    -5.9072    -2.8233 H       
  61 H61            7.6669    -7.1799    -1.7413 H       
  62 H62            5.8199    -5.2186    -3.1790 H       
  63 H63            5.3093    -6.6168    -2.2018 H       
  64 H64            6.3952    -5.6297    -0.2092 H       
  65 H65            5.1946    -4.5071    -0.8919 H       
  66 H66            7.0114    -7.8624    -6.8998 H       
  67 H67            7.4649   -11.9780    -8.5876 H       
  68 H68            8.0099   -13.8879    -7.1345 H       
  69 H69            8.3137   -13.5202    -4.6959 H       
  70 H70            8.0607   -11.2184    -3.7972 H       
  71 H71           -1.2963    -1.7965     0.0049 H       
  72 H72           -3.3611    -0.5774     0.0324 H       
  73 H73           -5.4426     1.8099     1.4528 H       
@<TRIPOS>BOND
   1    1    2 ar
   2    1    3 ar
   3    1   40 1
   4    2   37 1
   5    2    6 ar
   6    3    4 ar
   7    3   45 1
   8    4    5 ar
   9    4    8 1
  10    5    6 ar
  11    5    7 1
  12    7   14 ar
  13    7   18 ar
  14    8    9 ar
  15    8   13 ar
  16    9   10 ar
  17    9   46 1
  18   10   11 ar
  19   10   47 1
  20   11   12 ar
  21   11   48 1
  22   12   13 ar
  23   12   49 1
  24   13   50 1
  25   14   15 ar
  26   14   51 1
  27   15   16 ar
  28   15   52 1
  29   16   17 ar
  30   16   19 1
  31   17   18 ar
  32   17   53 1
  33   18   54 1
  34   19   20 1
  35   19   55 1
  36   19   56 1
  37   20   21 1
  38   20   25 1
  39   21   22 1
  40   21   57 1
  41   21   58 1
  42   22   23 1
  43   22   59 1
  44   22   60 1
  45   23   24 1
  46   23   26 1
  47   23   61 1
  48   24   25 1
  49   24   62 1
  50   24   63 1
  51   25   64 1
  52   25   65 1
  53   26   27 2
  54   26   30 1
  55   27   28 1
  56   28   29 1
  57   28   66 1
  58   29   30 2
  59   29   31 1
  60   31   32 ar
  61   31   36 ar
  62   32   33 ar
  63   33   34 ar
  64   33   67 1
  65   34   35 ar
  66   34   68 1
  67   35   36 ar
  68   35   69 1
  69   36   70 1
  70   37   38 2
  71   37   71 1
  72   38   39 1
  73   38   72 1
  74   39   40 1
  75   39   41 1
  76   40   43 2
  77   41   42 2
  78   41   44 1
  79   42   43 1
  80   44   73 1

#	End of record

