#	Name: ASD03330545
#	Creating user name:	WinNT
#	Creation time:	15. 06. 2019 20:37

#	Modifying user name:	WinNT
#	Modification time:	15. 06. 2019 20:37

#	Program:	/corina/corina34_cracker 3.40 0067  02.08.2006

@<TRIPOS>MOLECULE
ASD03330545
  64   66    0    0    0
SMALL
NO_CHARGES


@<TRIPOS>ATOM
   1 C1            -0.0550     1.9990     1.7808 C.2     
   2 N2            -0.1422     0.7069     2.1959 N.pl3   
   3 C3             1.2214     2.1957     1.3494 C.2     
   4 N4             1.8882     1.0285     1.4882 N.2     
   5 C5             1.0759     0.1277     1.9902 C.2     
   6 C6             1.4230    -1.2791     2.2837 C.ar    
   7 C7             1.7763     3.4558     0.8246 C.2     
   8 O8             1.0725     4.4447     0.7474 O.2     
   9 C9             3.6156     4.7654    -0.0915 C.3     
  10 N10            3.0638     3.5125     0.4302 N.am    
  11 C11            3.3059     4.8758    -1.5858 C.3     
  12 C12            1.7955     4.7640    -1.8032 C.3     
  13 C13            3.7980     6.2263    -2.1102 C.3     
  14 C14            4.0144     3.7477    -2.3382 C.3     
  15 C15            5.1083     4.7813     0.1146 C.2     
  16 N16            5.7939     5.9347    -0.0123 N.am    
  17 O17            5.6927     3.7562     0.3948 O.2     
  18 C18            7.2533     5.9372     0.1149 C.3     
  19 C19           -1.3345     0.0775     2.7703 C.3     
  20 C20           -2.5499     0.4185     1.9025 C.3     
  21 C21           -3.1614     1.7366     2.3665 C.3     
  22 N22           -2.1292     2.6539     2.8535 N.3     
  23 C23           -1.1784     3.0030     1.7875 C.3     
  24 C24           -2.7302     3.8598     3.4386 C.3     
  25 C25            2.1106    -2.0465     1.3361 C.ar    
  26 C26            2.4318    -3.3642     1.6208 C.ar    
  27 C27            2.0742    -3.9172     2.8354 C.ar    
  28 C28            1.3937    -3.1616     3.7748 C.ar    
  29 C29            1.0719    -1.8470     3.5087 C.ar    
  30 O30            2.4611    -1.5020     0.1424 O.3     
  31 C31            3.1610    -2.3452    -0.7748 C.3     
  32 F32            2.3680    -3.4549    -1.0862 F       
  33 F33            3.4423    -1.6302    -1.9439 F       
  34 F34            4.3577    -2.7759    -0.1921 F       
  35 H35            3.1670     5.6074     0.4357 H       
  36 H36            3.6252     2.7239     0.4918 H       
  37 H37            1.2908     5.5678    -1.2672 H       
  38 H38            1.5749     4.8427    -2.8678 H       
  39 H39            1.4449     3.8019    -1.4297 H       
  40 H40            4.8421     6.3662    -1.8300 H       
  41 H41            3.7070     6.2494    -3.1961 H       
  42 H42            3.1956     7.0253    -1.6780 H       
  43 H43            3.6638     2.7856    -1.9646 H       
  44 H44            3.7938     3.8263    -3.4027 H       
  45 H45            5.0904     3.8273    -2.1833 H       
  46 H46            5.3209     6.7632    -0.1879 H       
  47 H47            7.6278     6.9523    -0.0168 H       
  48 H48            7.5325     5.5723     1.1034 H       
  49 H49            7.6856     5.2887    -0.6472 H       
  50 H50           -1.1983    -1.0036     2.7978 H       
  51 H51           -1.4925     0.4516     3.7818 H       
  52 H52           -2.2382     0.5100     0.8620 H       
  53 H53           -3.2916    -0.3755     1.9893 H       
  54 H54           -3.6871     2.2004     1.5319 H       
  55 H55           -3.8714     1.5384     3.1695 H       
  56 H56           -0.7757     3.9993     1.9702 H       
  57 H57           -1.6884     2.9858     0.8242 H       
  58 H58           -3.3699     3.5778     4.2749 H       
  59 H59           -1.9415     4.5239     3.7923 H       
  60 H60           -3.3252     4.3726     2.6829 H       
  61 H61            2.9619    -3.9596     0.8922 H       
  62 H62            2.3266    -4.9445     3.0530 H       
  63 H63            1.1174    -3.6019     4.7215 H       
  64 H64            0.5413    -1.2607     4.2443 H       
@<TRIPOS>BOND
   1    1    2 1
   2    1    3 2
   3    1   23 1
   4    2   19 1
   5    2    5 1
   6    3    4 1
   7    3    7 1
   8    4    5 2
   9    5    6 1
  10    6   25 ar
  11    6   29 ar
  12    7    8 2
  13    7   10 am
  14    9   10 1
  15    9   11 1
  16    9   15 1
  17    9   35 1
  18   10   36 1
  19   11   12 1
  20   11   13 1
  21   11   14 1
  22   12   37 1
  23   12   38 1
  24   12   39 1
  25   13   40 1
  26   13   41 1
  27   13   42 1
  28   14   43 1
  29   14   44 1
  30   14   45 1
  31   15   16 am
  32   15   17 2
  33   16   18 1
  34   16   46 1
  35   18   47 1
  36   18   48 1
  37   18   49 1
  38   19   20 1
  39   19   50 1
  40   19   51 1
  41   20   21 1
  42   20   52 1
  43   20   53 1
  44   21   22 1
  45   21   54 1
  46   21   55 1
  47   22   23 1
  48   22   24 1
  49   23   56 1
  50   23   57 1
  51   24   58 1
  52   24   59 1
  53   24   60 1
  54   25   26 ar
  55   25   30 1
  56   26   27 ar
  57   26   61 1
  58   27   28 ar
  59   27   62 1
  60   28   29 ar
  61   28   63 1
  62   29   64 1
  63   30   31 1
  64   31   32 1
  65   31   33 1
  66   31   34 1

#	End of record

