#	Name: ASD01913844
#	Creating user name:	WinNT
#	Creation time:	15. 06. 2019 20:02

#	Modifying user name:	WinNT
#	Modification time:	15. 06. 2019 20:02

#	Program:	/corina/corina34_cracker 3.40 0067  02.08.2006

@<TRIPOS>MOLECULE
ASD01913844
  42   45    0    0    0
SMALL
NO_CHARGES


@<TRIPOS>ATOM
   1 C1            -0.0238     1.4277    -0.0321 C.ar    
   2 C2            -0.0025    -0.0041    -0.0275 C.1     
   3 C3             0.0149    -1.1780    -0.0237 C.1     
   4 C4             0.0361    -2.6098    -0.0191 C.ar    
   5 C5            -1.1327    -3.3385     0.2479 C.ar    
   6 C6             0.1560    -5.3344    -0.0290 C.ar    
   7 N7             1.2412    -4.6188    -0.2831 N.ar    
   8 C8             1.2193    -3.3021    -0.2859 C.ar    
   9 C9            -1.0618    -4.7170     0.2405 C.ar    
  10 N10            0.2331    -6.7250    -0.0390 N.am    
  11 C11            1.1392     2.1549    -0.2977 C.ar    
  12 N12            1.1187     3.4715    -0.3022 N.ar    
  13 C13           -1.1794     3.5066     0.2071 C.ar    
  14 C14           -1.2130     2.1240     0.2240 C.ar    
  15 C15            0.0151     4.1523    -0.0597 C.ar    
  16 C16           -0.8157    -7.5618    -0.0286 C.2     
  17 N17           -0.4723    -8.8493     0.0300 N.am    
  18 C18            0.9924    -8.9668    -0.1269 C.3     
  19 C19            1.4779    -7.5099    -0.0689 C.3     
  20 C20           -1.3401   -10.0119     0.2669 C.3     
  21 C21           -0.7389   -10.8024     1.4381 C.3     
  22 C22            0.7408   -11.0778     1.1694 C.3     
  23 C23            1.5196    -9.7625     1.0709 C.3     
  24 O24           -1.9700    -7.1822    -0.0682 O.2     
  25 H25           -2.0647    -2.8334     0.4543 H       
  26 H26            2.1248    -2.7525    -0.4968 H       
  27 H27           -1.9417    -5.3100     0.4421 H       
  28 H28            2.0627     1.6329    -0.5006 H       
  29 H29           -2.0763     4.0765     0.3999 H       
  30 H30           -2.1317     1.5946     0.4295 H       
  31 H31            0.0434     5.2318    -0.0735 H       
  32 H32            1.2564    -9.4333    -1.0760 H       
  33 H33            2.0680    -7.2677    -0.9528 H       
  34 H34            2.0563    -7.3350     0.8383 H       
  35 H35           -2.3456    -9.6777     0.5228 H       
  36 H36           -1.3726   -10.6379    -0.6248 H       
  37 H37           -0.8390   -10.2230     2.3559 H       
  38 H38           -1.2696   -11.7481     1.5476 H       
  39 H39            1.1491   -11.6785     1.9821 H       
  40 H40            0.8410   -11.6271     0.2332 H       
  41 H41            2.5794    -9.9749     0.9307 H       
  42 H42            1.3781    -9.1847     1.9843 H       
@<TRIPOS>BOND
   1    1    2 1
   2    1   11 ar
   3    1   14 ar
   4    2    3 3
   5    3    4 1
   6    4    5 ar
   7    4    8 ar
   8    5    9 ar
   9    5   25 1
  10    6    7 ar
  11    6   10 1
  12    6    9 ar
  13    7    8 ar
  14    8   26 1
  15    9   27 1
  16   10   16 am
  17   10   19 1
  18   11   12 ar
  19   11   28 1
  20   12   15 ar
  21   13   14 ar
  22   13   15 ar
  23   13   29 1
  24   14   30 1
  25   15   31 1
  26   16   17 am
  27   16   24 2
  28   17   18 1
  29   17   20 1
  30   18   19 1
  31   18   23 1
  32   18   32 1
  33   19   33 1
  34   19   34 1
  35   20   21 1
  36   20   35 1
  37   20   36 1
  38   21   22 1
  39   21   37 1
  40   21   38 1
  41   22   23 1
  42   22   39 1
  43   22   40 1
  44   23   41 1
  45   23   42 1

#	End of record

