#	Name: ASD09740110
#	Creating user name:	WinNT
#	Creation time:	15. 06. 2019 21:22

#	Modifying user name:	WinNT
#	Modification time:	15. 06. 2019 21:22

#	Program:	/corina/corina34_cracker 3.40 0067  02.08.2006

@<TRIPOS>MOLECULE
ASD09740110
  43   47    0    0    0
SMALL
NO_CHARGES


@<TRIPOS>ATOM
   1 N1            -0.0133     1.2083    -0.0502 N.2     
   2 O2             0.0028    -0.0042    -0.0383 O.3     
   3 C3             1.2069     1.6817    -0.0004 C.2     
   4 N4             2.0473     0.6273     0.0465 N.2     
   5 C5             1.2711    -0.4443     0.0219 C.2     
   6 C6             1.7112    -1.8451     0.0547 C.2     
   7 C7             1.5934     3.1125     0.0031 C.ar    
   8 C8             2.5463     3.5932     0.9320 C.ar    
   9 C9             2.8996     4.9647     0.9153 C.ar    
  10 C10            2.2987     5.8230    -0.0213 C.ar    
  11 C11            1.3833     5.3356    -0.9044 C.ar    
  12 C12            1.0305     3.9908    -0.9055 C.ar    
  13 C13            0.8915    -2.9187     0.0282 C.2     
  14 C14            1.5636    -4.1312     0.0688 C.2     
  15 C15            2.9161    -4.0193     0.1275 C.2     
  16 S16            3.3839    -2.3786     0.1267 S.3     
  17 C17            0.8643    -5.4401     0.0498 C.ar    
  18 C18           -0.1886    -5.6832     0.9294 C.ar    
  19 C19            1.2547    -6.4283    -0.8517 C.ar    
  20 C20            0.6009    -7.6438    -0.8650 C.ar    
  21 C21           -0.4400    -7.8818     0.0143 C.ar    
  22 C22           -0.8353    -6.9023     0.9074 C.ar    
  23 C23            3.8464     5.4426     1.8381 C.ar    
  24 C24            4.4086     4.5838     2.7320 C.ar    
  25 C25            4.0599     3.2350     2.7470 C.ar    
  26 C26            3.1457     2.7381     1.8682 C.ar    
  27 C27            3.8715    -5.1835     0.1809 C.3     
  28 F28            4.2253    -5.5565    -1.1203 F       
  29 F29            5.0200    -4.8122     0.8882 F       
  30 F30            3.2561    -6.2627     0.8242 F       
  31 H31            2.5627     6.8701    -0.0406 H       
  32 H32            0.9276     6.0043    -1.6196 H       
  33 H33            0.3020     3.6300    -1.6164 H       
  34 H34           -0.1846    -2.8402    -0.0199 H       
  35 H35           -0.4978    -4.9192     1.6273 H       
  36 H36            2.0670    -6.2434    -1.5389 H       
  37 H37            0.9024    -8.4103    -1.5636 H       
  38 H38           -0.9488    -8.8343     0.0004 H       
  39 H39           -1.6487    -7.0934     1.5917 H       
  40 H40            4.1263     6.4857     1.8375 H       
  41 H41            5.1360     4.9533     3.4397 H       
  42 H42            4.5206     2.5741     3.4664 H       
  43 H43            2.8846     1.6904     1.8913 H       
@<TRIPOS>BOND
   1    1    2 1
   2    1    3 2
   3    2    5 1
   4    3    4 1
   5    3    7 1
   6    4    5 2
   7    5    6 1
   8    6   13 2
   9    6   16 1
  10    7    8 ar
  11    7   12 ar
  12    8    9 ar
  13    8   26 ar
  14    9   10 ar
  15    9   23 ar
  16   10   11 ar
  17   10   31 1
  18   11   12 ar
  19   11   32 1
  20   12   33 1
  21   13   14 1
  22   13   34 1
  23   14   15 2
  24   14   17 1
  25   15   16 1
  26   15   27 1
  27   17   18 ar
  28   17   19 ar
  29   18   22 ar
  30   18   35 1
  31   19   20 ar
  32   19   36 1
  33   20   21 ar
  34   20   37 1
  35   21   22 ar
  36   21   38 1
  37   22   39 1
  38   23   24 ar
  39   23   40 1
  40   24   25 ar
  41   24   41 1
  42   25   26 ar
  43   25   42 1
  44   26   43 1
  45   27   28 1
  46   27   29 1
  47   27   30 1

#	End of record

