#	Name: ASD03092703
#	Creating user name:	WinNT
#	Creation time:	15. 06. 2019 20:33

#	Modifying user name:	WinNT
#	Modification time:	15. 06. 2019 20:33

#	Program:	/corina/corina34_cracker 3.40 0067  02.08.2006

@<TRIPOS>MOLECULE
ASD03092703
  50   53    0    0    0
SMALL
NO_CHARGES


@<TRIPOS>ATOM
   1 C1            -0.0187     1.5258     0.0104 C.3     
   2 C2             0.0021    -0.0041     0.0020 C.3     
   3 C3             1.3165     0.7789    -0.0063 C.3     
   4 C4            -0.4176     2.2092     1.2929 C.2     
   5 O5            -0.7068     1.5482     2.2678 O.2     
   6 N6            -0.4530     3.5550     1.3566 N.am    
   7 C7            -0.8408     4.2194     2.6034 C.3     
   8 C8             0.3833     4.3550     3.5112 C.3     
   9 O9             1.3361     5.2264     2.8990 O.3     
  10 C10           -0.8027     6.3721     1.3205 C.ar    
  11 C11           -1.3904     5.5879     2.2934 C.ar    
  12 C12           -2.4930     6.0736     2.9823 C.ar    
  13 C13           -2.9658     7.3355     2.6660 C.ar    
  14 C14           -2.3249     8.0686     1.6759 C.ar    
  15 N15           -1.2760     7.5715     1.0414 N.ar    
  16 O16           -2.7786     9.3067     1.3565 O.3     
  17 C17           -2.0765    10.0101     0.3297 C.3     
  18 C18           -2.9642    10.9756    -0.4732 C.3     
  19 C19           -1.7822    11.9591    -0.4474 C.3     
  20 C20           -1.3226    11.2505     0.8377 C.3     
  21 C21           -0.4023    -0.6984    -1.2729 C.ar    
  22 C22           -1.4808    -1.5632    -1.2768 C.ar    
  23 C23           -1.8517    -2.2002    -2.4462 C.ar    
  24 C24           -1.1445    -1.9720    -3.6118 C.ar    
  25 C25           -0.0666    -1.1066    -3.6081 C.ar    
  26 C26            0.3016    -0.4663    -2.4397 C.ar    
  27 H27           -0.3248     2.0300    -0.9061 H       
  28 H28           -0.2728    -0.5162     0.9241 H       
  29 H29            1.8888     0.7918    -0.9339 H       
  30 H30            1.9064     0.7818     0.9103 H       
  31 H31           -0.2217     4.0837     0.5769 H       
  32 H32           -1.6040     3.6273     3.1085 H       
  33 H33            0.0785     4.7679     4.4728 H       
  34 H34            0.8333     3.3739     3.6632 H       
  35 H35            2.1398     5.3588     3.4202 H       
  36 H36            0.0583     6.0007     0.7845 H       
  37 H37           -2.9713     5.4803     3.7476 H       
  38 H38           -3.8219     7.7443     3.1821 H       
  39 H39           -1.4698     9.3538    -0.2941 H       
  40 H40           -3.2101    10.6146    -1.4718 H       
  41 H41           -3.8367    11.3270     0.0776 H       
  42 H42           -1.0939    11.8365    -1.2837 H       
  43 H43           -2.0802    12.9959    -0.2916 H       
  44 H44           -1.7462    11.6770     1.7469 H       
  45 H45           -0.2431    11.1113     0.8973 H       
  46 H46           -2.0333    -1.7415    -0.3661 H       
  47 H47           -2.6938    -2.8764    -2.4491 H       
  48 H48           -1.4339    -2.4702    -4.5253 H       
  49 H49            0.4861    -0.9286    -4.5187 H       
  50 H50            1.1415     0.2128    -2.4376 H       
@<TRIPOS>BOND
   1    1    2 1
   2    1    3 1
   3    1    4 1
   4    1   27 1
   5    2    3 1
   6    2   21 1
   7    2   28 1
   8    3   29 1
   9    3   30 1
  10    4    5 2
  11    4    6 am
  12    6    7 1
  13    6   31 1
  14    7    8 1
  15    7   11 1
  16    7   32 1
  17    8    9 1
  18    8   33 1
  19    8   34 1
  20    9   35 1
  21   10   11 ar
  22   10   15 ar
  23   10   36 1
  24   11   12 ar
  25   12   13 ar
  26   12   37 1
  27   13   14 ar
  28   13   38 1
  29   14   15 ar
  30   14   16 1
  31   16   17 1
  32   17   18 1
  33   17   20 1
  34   17   39 1
  35   18   19 1
  36   18   40 1
  37   18   41 1
  38   19   20 1
  39   19   42 1
  40   19   43 1
  41   20   44 1
  42   20   45 1
  43   21   22 ar
  44   21   26 ar
  45   22   23 ar
  46   22   46 1
  47   23   24 ar
  48   23   47 1
  49   24   25 ar
  50   24   48 1
  51   25   26 ar
  52   25   49 1
  53   26   50 1

#	End of record

