#	Name: ASD02560073
#	Creating user name:	WinNT
#	Creation time:	15. 06. 2019 20:24

#	Modifying user name:	WinNT
#	Modification time:	15. 06. 2019 20:24

#	Program:	/corina/corina34_cracker 3.40 0067  02.08.2006

@<TRIPOS>MOLECULE
ASD02560073
  46   48    0    0    0
SMALL
NO_CHARGES


@<TRIPOS>ATOM
   1 C1             0.1102    -3.2113     3.2111 C.ar    
   2 C2            -0.7333    -3.0435     2.1301 C.ar    
   3 C3            -0.3465    -2.2385     1.0682 C.ar    
   4 C4             0.8871    -1.6041     1.0951 C.ar    
   5 C5             1.7270    -1.7753     2.1785 C.ar    
   6 C6             1.3369    -2.5737     3.2378 C.ar    
   7 O7            -1.1744    -2.0722     0.0034 O.3     
   8 C8            -2.3151    -2.8017    -0.0353 C.2     
   9 C9            -3.5462    -2.1881     0.1076 C.2     
  10 C10           -4.7067    -2.9704     0.0624 C.2     
  11 N11           -4.6179    -4.3013    -0.1176 N.am    
  12 C12           -3.4114    -4.9111    -0.2583 C.2     
  13 C13           -2.2659    -4.1969    -0.2277 C.2     
  14 C14           -0.9380    -4.8916    -0.3860 C.3     
  15 S15           -0.2833    -4.5732    -2.0475 S.3     
  16 C16           -3.3517    -6.4037    -0.4576 C.3     
  17 O17           -5.8016    -2.4440     0.1869 O.2     
  18 I18           -3.6733    -0.1159     0.3886 I       
  19 C19           -0.3094    -4.0850     4.3650 C.3     
  20 C20            3.0672    -1.0869     2.2082 C.3     
  21 C21            1.2904    -5.4754    -2.0458 C.3     
  22 C22            1.9679    -5.3061    -3.3813 C.2     
  23 O23            1.8115    -6.1065    -4.4484 O.3     
  24 C24            2.5670    -5.6538    -5.4623 C.2     
  25 C25            3.2177    -4.5517    -5.0484 C.2     
  26 C26            2.8274    -4.3245    -3.7086 C.2     
  27 H27           -1.6929    -3.5387     2.1114 H       
  28 H28            1.1907    -0.9773     0.2696 H       
  29 H29            1.9948    -2.7060     4.0840 H       
  30 H30           -5.4280    -4.8339    -0.1470 H       
  31 H31           -0.2385    -4.5123     0.3589 H       
  32 H32           -1.0703    -5.9645    -0.2471 H       
  33 H33           -4.3629    -6.8106    -0.4604 H       
  34 H34           -2.8687    -6.6241    -1.4096 H       
  35 H35           -2.7803    -6.8559     0.3530 H       
  36 H36            0.0173    -5.1089     4.1831 H       
  37 H37            0.1458    -3.7163     5.2842 H       
  38 H38           -1.3948    -4.0618     4.4623 H       
  39 H39            2.9472    -0.0744     2.5937 H       
  40 H40            3.7472    -1.6432     2.8534 H       
  41 H41            3.4767    -1.0452     1.1989 H       
  42 H42            1.9342    -5.0815    -1.2594 H       
  43 H43            1.1023    -6.5337    -1.8654 H       
  44 H44            2.6401    -6.0993    -6.4434 H       
  45 H45            3.9037    -3.9531    -5.6292 H       
  46 H46            3.1605    -3.5208    -3.0686 H       
@<TRIPOS>BOND
   1    1    2 ar
   2    1   19 1
   3    1    6 ar
   4    2    3 ar
   5    2   27 1
   6    3    4 ar
   7    3    7 1
   8    4    5 ar
   9    4   28 1
  10    5    6 ar
  11    5   20 1
  12    6   29 1
  13    7    8 1
  14    8    9 2
  15    8   13 1
  16    9   10 1
  17    9   18 1
  18   10   11 am
  19   10   17 2
  20   11   12 1
  21   11   30 1
  22   12   13 2
  23   12   16 1
  24   13   14 1
  25   14   15 1
  26   14   31 1
  27   14   32 1
  28   15   21 1
  29   16   33 1
  30   16   34 1
  31   16   35 1
  32   19   36 1
  33   19   37 1
  34   19   38 1
  35   20   39 1
  36   20   40 1
  37   20   41 1
  38   21   22 1
  39   21   42 1
  40   21   43 1
  41   22   23 1
  42   22   26 2
  43   23   24 1
  44   24   25 2
  45   24   44 1
  46   25   26 1
  47   25   45 1
  48   26   46 1

#	End of record

