#	Name: ASD01884140
#	Creating user name:	WinNT
#	Creation time:	15. 06. 2019 19:47

#	Modifying user name:	WinNT
#	Modification time:	15. 06. 2019 19:47

#	Program:	/corina/corina34_cracker 3.40 0067  02.08.2006

@<TRIPOS>MOLECULE
ASD01884140
  27   28    0    0    0
SMALL
NO_CHARGES


@<TRIPOS>ATOM
   1 C1            -0.0187     1.5270     0.0104 C.3     
   2 C2             0.7943    -0.5026     1.2138 C.3     
   3 C3             2.2082     0.0811     1.1680 C.3     
   4 N4             2.1343     1.5477     1.1786 N.3     
   5 C5             1.4188     2.0518    -0.0005 C.3     
   6 C6            -1.4094    -0.5273     0.0732 C.ar    
   7 C7            -1.6722    -1.8502    -0.2297 C.ar    
   8 C8            -2.9661    -2.3315    -0.1589 C.ar    
   9 C9            -3.9971    -1.4901     0.2152 C.ar    
  10 C10           -3.7341    -0.1674     0.5189 C.ar    
  11 C11           -2.4405     0.3143     0.4468 C.ar    
  12 C12            0.0021    -0.0041     0.0020 C.3     
  13 F13            0.6111    -0.4569    -1.1732 F       
  14 H14           -0.5279     1.8791     0.9076 H       
  15 H15           -0.5449     1.8886    -0.8730 H       
  16 H16            0.8490    -1.5910     1.1901 H       
  17 H17            0.2979    -0.1824     2.1299 H       
  18 H18            2.7705    -0.2605     2.0371 H       
  19 H19            2.7088    -0.2507     0.2584 H       
  20 H20            1.7087     1.8821     2.0302 H       
  21 H21            1.9231     1.7108    -0.9046 H       
  22 H22            1.4077     3.1416     0.0199 H       
  23 H23           -0.8668    -2.5076    -0.5220 H       
  24 H24           -3.1716    -3.3649    -0.3963 H       
  25 H25           -5.0081    -1.8660     0.2698 H       
  26 H26           -4.5397     0.4901     0.8105 H       
  27 H27           -2.2351     1.3478     0.6834 H       
@<TRIPOS>BOND
   1    1   12 1
   2    1    5 1
   3    1   14 1
   4    1   15 1
   5    2    3 1
   6    2   12 1
   7    2   16 1
   8    2   17 1
   9    3    4 1
  10    3   18 1
  11    3   19 1
  12    4    5 1
  13    4   20 1
  14    5   21 1
  15    5   22 1
  16    6    7 ar
  17    6   11 ar
  18    6   12 1
  19    7    8 ar
  20    7   23 1
  21    8    9 ar
  22    8   24 1
  23    9   10 ar
  24    9   25 1
  25   10   11 ar
  26   10   26 1
  27   11   27 1
  28   12   13 1

#	End of record

