#	Name: ASD03470026
#	Creating user name:	WinNT
#	Creation time:	15. 06. 2019 20:42

#	Modifying user name:	WinNT
#	Modification time:	15. 06. 2019 20:42

#	Program:	/corina/corina34_cracker 3.40 0067  02.08.2006

@<TRIPOS>MOLECULE
ASD03470026
  59   62    0    0    0
SMALL
NO_CHARGES


@<TRIPOS>ATOM
   1 Cl1           -5.3894     6.7233     0.4054 Cl      
   2 C2             0.0223     1.3875     0.0430 C.ar    
   3 N3            -0.0300     0.0604     0.0574 N.ar    
   4 C4             1.2460     2.0486    -0.0210 C.ar    
   5 N5            -2.4933     1.6420     0.0278 N.pl3   
   6 C6             2.4191     1.2940    -0.0699 C.ar    
   7 N7            -1.3031     3.4746     0.1954 N.2     
   8 C8             2.3112    -0.1002    -0.0523 C.ar    
   9 C9             1.0588    -0.6794     0.0124 C.ar    
  10 C10            3.7462     1.9538    -0.1392 C.ar    
  11 C11            4.1972     2.7312     0.9257 C.ar    
  12 C12            5.4325     3.3427     0.8558 C.ar    
  13 C13            6.2223     3.1854    -0.2688 C.ar    
  14 C14            5.7796     2.4149    -1.3289 C.ar    
  15 C15            4.5487     1.7938    -1.2672 C.ar    
  16 C16            1.3029     3.5545    -0.0377 C.3     
  17 C17            0.9363    -2.1813     0.0317 C.3     
  18 C18            3.5472    -0.9609    -0.1036 C.3     
  19 C19            3.8150    -1.5374     1.2627 C.2     
  20 O20            3.3491    -2.0235    -1.0385 O.3     
  21 O21            3.7453    -2.7307     1.4393 O.2     
  22 O22            4.1311    -0.7253     2.2836 O.3     
  23 C23            4.5486    -2.4686    -1.6751 C.3     
  24 C24            5.5299    -2.9757    -0.6164 C.3     
  25 C25            4.2188    -3.6014    -2.6491 C.3     
  26 C26            5.1813    -1.3052    -2.4413 C.3     
  27 C27           -1.2325     2.1709     0.0892 C.2     
  28 C28           -3.3823     2.6959     0.1019 C.ar    
  29 C29           -2.6012     3.8606     0.2088 C.ar    
  30 C30           -4.7674     2.7892     0.0904 C.ar    
  31 C31           -3.2325     5.1060     0.3023 C.ar    
  32 C32           -5.3729     4.0238     0.1838 C.ar    
  33 C33           -4.6069     5.1781     0.2888 C.ar    
  34 H34           -2.7200     0.7026    -0.0563 H       
  35 H35            3.5811     2.8552     1.8040 H       
  36 H36            5.7830     3.9454     1.6806 H       
  37 H37            7.1880     3.6663    -0.3196 H       
  38 H38            6.4002     2.2958    -2.2048 H       
  39 H39            4.2059     1.1888    -2.0935 H       
  40 H40            1.2517     3.9314     0.9838 H       
  41 H41            2.2366     3.8777    -0.4979 H       
  42 H42            0.4615     3.9435    -0.6111 H       
  43 H43            0.8581    -2.5526    -0.9901 H       
  44 H44            1.8172    -2.6116     0.5082 H       
  45 H45            0.0451    -2.4660     0.5910 H       
  46 H46            4.3984    -0.3561    -0.4160 H       
  47 H47            4.2941    -1.1412     3.1412 H       
  48 H48            5.0791    -3.8045    -0.0706 H       
  49 H49            6.4448    -3.3152    -1.1020 H       
  50 H50            5.7648    -2.1686     0.0775 H       
  51 H51            3.5197    -3.2402    -3.4033 H       
  52 H52            5.1337    -3.9410    -3.1347 H       
  53 H53            3.7680    -4.4303    -2.1033 H       
  54 H54            5.4162    -0.4981    -1.7474 H       
  55 H55            6.0962    -1.6447    -2.9269 H       
  56 H56            4.4822    -0.9439    -3.1955 H       
  57 H57           -5.3692     1.8962     0.0080 H       
  58 H58           -2.6433     6.0074     0.3852 H       
  59 H59           -6.4505     4.0945     0.1743 H       
@<TRIPOS>BOND
   1    1   33 1
   2    2    3 ar
   3    2    4 ar
   4    2   27 1
   5    3    9 ar
   6    4    6 ar
   7    4   16 1
   8    5   27 1
   9    5   28 1
  10    5   34 1
  11    6    8 ar
  12    6   10 1
  13    7   27 2
  14    7   29 1
  15    8    9 ar
  16    8   18 1
  17    9   17 1
  18   10   11 ar
  19   10   15 ar
  20   11   12 ar
  21   11   35 1
  22   12   13 ar
  23   12   36 1
  24   13   14 ar
  25   13   37 1
  26   14   15 ar
  27   14   38 1
  28   15   39 1
  29   16   40 1
  30   16   41 1
  31   16   42 1
  32   17   43 1
  33   17   44 1
  34   17   45 1
  35   18   19 1
  36   18   20 1
  37   18   46 1
  38   19   21 2
  39   19   22 1
  40   20   23 1
  41   22   47 1
  42   23   24 1
  43   23   25 1
  44   23   26 1
  45   24   48 1
  46   24   49 1
  47   24   50 1
  48   25   51 1
  49   25   52 1
  50   25   53 1
  51   26   54 1
  52   26   55 1
  53   26   56 1
  54   28   29 ar
  55   28   30 ar
  56   29   31 ar
  57   30   32 ar
  58   30   57 1
  59   31   33 ar
  60   31   58 1
  61   32   33 ar
  62   32   59 1

#	End of record

