#	Name: ASD09116518
#	Creating user name:	WinNT
#	Creation time:	15. 06. 2019 21:21

#	Modifying user name:	WinNT
#	Modification time:	15. 06. 2019 21:21

#	Program:	/corina/corina34_cracker 3.40 0067  02.08.2006

@<TRIPOS>MOLECULE
ASD09116518
  63   68    0    0    0
SMALL
NO_CHARGES


@<TRIPOS>ATOM
   1 N1            -0.5586     3.8876    -0.5571 N.2     
   2 N2            -1.0885     4.8982    -1.3755 N.pl3   
   3 C3             0.7469     3.9593    -0.6561 C.2     
   4 N4             1.0700     4.9558    -1.4887 N.2     
   5 C5            -0.0244     5.5349    -1.9337 C.2     
   6 N6            -0.0822     6.6001    -2.8115 N.pl3   
   7 C7            -2.4357     5.1900    -1.5761 C.ar    
   8 N8             1.6544     3.1296     0.0024 N.pl3   
   9 C9             3.0266     3.3748    -0.0995 C.ar    
  10 C10            3.5019     4.6706    -0.3016 C.ar    
  11 C11            3.9393     2.3329     0.0046 C.ar    
  12 N12            5.2352     2.5563    -0.0910 N.ar    
  13 C13            5.7120     3.7732    -0.2886 C.ar    
  14 C14            4.8715     4.8498    -0.3939 C.ar    
  15 N15           -2.7985     6.1790    -2.3822 N.ar    
  16 C16           -4.0758     6.4602    -2.5761 C.ar    
  17 N17           -5.0409     5.7915    -1.9939 N.ar    
  18 C18           -4.7723     4.7659    -1.1546 C.ar    
  19 C19           -3.4312     4.4391    -0.9332 C.ar    
  20 C20            7.2105     3.9753    -0.3979 C.3     
  21 C21            7.5506     4.3160    -1.8480 C.3     
  22 C22            7.4148     5.8068    -2.1130 C.3     
  23 C23            5.9841     6.3162    -2.0440 C.3     
  24 C24            5.4358     6.2372    -0.6142 C.3     
  25 O25            8.2073     6.5212    -1.1503 O.3     
  26 C26            9.5885     6.1512    -1.1585 C.3     
  27 C27           10.1677     6.4155    -2.5525 C.3     
  28 C28            9.3023     5.6930    -3.5906 C.3     
  29 O29            7.9402     6.0922    -3.4203 O.3     
  30 C30           10.1594     7.9192    -2.8348 C.3     
  31 C31           11.6013     5.8855    -2.6213 C.3     
  32 C32           -5.6518     3.9362    -0.4415 C.2     
  33 C33           -5.0841     3.0063     0.3101 C.2     
  34 S34           -3.3347     3.0861     0.1843 S.3     
  35 C35           -7.1481     4.0947    -0.5259 C.3     
  36 Cl36          -4.4905     7.7659    -3.6423 Cl      
  37 H37            0.7366     6.9888    -3.1570 H       
  38 H38           -0.9416     6.9592    -3.0824 H       
  39 H39            1.3332     2.3824     0.5310 H       
  40 H40            2.8234     5.5068    -0.3836 H       
  41 H41            3.5826     1.3264     0.1662 H       
  42 H42            7.5178     4.7943     0.2524 H       
  43 H43            7.7255     3.0599    -0.1065 H       
  44 H44            8.5756     4.0088    -2.0557 H       
  45 H45            6.8757     3.7732    -2.5098 H       
  46 H46            5.9577     7.3530    -2.3793 H       
  47 H47            5.3583     5.7132    -2.7019 H       
  48 H48            4.6474     6.9782    -0.4828 H       
  49 H49            6.2402     6.4238     0.0973 H       
  50 H50           10.1292     6.7438    -0.4205 H       
  51 H51            9.6839     5.0922    -0.9187 H       
  52 H52            9.6375     5.9585    -4.5932 H       
  53 H53            9.3870     4.6155    -3.4496 H       
  54 H54           10.7648     8.4325    -2.0878 H       
  55 H55           10.5717     8.1050    -3.8266 H       
  56 H56            9.1359     8.2914    -2.7913 H       
  57 H57           11.6020     4.8131    -2.4261 H       
  58 H58           12.0113     6.0744    -3.6135 H       
  59 H59           12.2120     6.3913    -1.8735 H       
  60 H60           -5.6237     2.2935     0.9161 H       
  61 H61           -7.5335     3.4784    -1.3381 H       
  62 H62           -7.6004     3.7804     0.4148 H       
  63 H63           -7.3927     5.1398    -0.7153 H       
@<TRIPOS>BOND
   1    1    2 1
   2    1    3 2
   3    2    7 1
   4    2    5 1
   5    3    4 1
   6    3    8 1
   7    4    5 2
   8    5    6 1
   9    6   37 1
  10    6   38 1
  11    7   15 ar
  12    7   19 ar
  13    8    9 1
  14    8   39 1
  15    9   10 ar
  16    9   11 ar
  17   10   14 ar
  18   10   40 1
  19   11   12 ar
  20   11   41 1
  21   12   13 ar
  22   13   14 ar
  23   13   20 1
  24   14   24 1
  25   15   16 ar
  26   16   17 ar
  27   16   36 1
  28   17   18 ar
  29   18   19 ar
  30   18   32 1
  31   19   34 1
  32   20   21 1
  33   20   42 1
  34   20   43 1
  35   21   22 1
  36   21   44 1
  37   21   45 1
  38   22   23 1
  39   22   25 1
  40   22   29 1
  41   23   24 1
  42   23   46 1
  43   23   47 1
  44   24   48 1
  45   24   49 1
  46   25   26 1
  47   26   27 1
  48   26   50 1
  49   26   51 1
  50   27   28 1
  51   27   30 1
  52   27   31 1
  53   28   29 1
  54   28   52 1
  55   28   53 1
  56   30   54 1
  57   30   55 1
  58   30   56 1
  59   31   57 1
  60   31   58 1
  61   31   59 1
  62   32   33 2
  63   32   35 1
  64   33   34 1
  65   33   60 1
  66   35   61 1
  67   35   62 1
  68   35   63 1

#	End of record

