#	Name: ASD04880181
#	Creating user name:	WinNT
#	Creation time:	15. 06. 2019 20:53

#	Modifying user name:	WinNT
#	Modification time:	15. 06. 2019 20:53

#	Program:	/corina/corina34_cracker 3.40 0067  02.08.2006

@<TRIPOS>MOLECULE
ASD04880181
  49   51    0    0    0
SMALL
NO_CHARGES


@<TRIPOS>ATOM
   1 C1            -0.0184     1.5028     0.0103 C.2     
   2 C2             0.0021    -0.0041     0.0020 C.3     
   3 O3             1.0239     2.1236     0.0037 O.2     
   4 N4            -1.1946     2.1607     0.0195 N.am    
   5 N5            -2.4552     1.5672     0.0227 N.2     
   6 C6            -3.4323     2.4069     0.0325 C.2     
   7 C7            -2.8865     3.8169     0.0376 C.3     
   8 C8            -1.3572     3.6232     0.0341 C.3     
   9 C9            -4.8622     2.0481     0.0375 C.ar    
  10 C10           -5.2474     0.7050     0.0320 C.ar    
  11 C11           -6.5895     0.3743     0.0372 C.ar    
  12 C12           -7.5546     1.3790     0.0475 C.ar    
  13 C13           -7.1726     2.7127     0.0530 C.ar    
  14 C14           -5.8356     3.0503     0.0537 C.ar    
  15 O15           -8.8740     1.0516     0.0517 O.3     
  16 C16           -9.8102     2.1312     0.0623 C.3     
  17 O17           -6.9679    -0.9320     0.0319 O.3     
  18 C18           -5.9254    -1.9093     0.0209 C.3     
  19 O19            1.3556    -0.4620    -0.0134 O.3     
  20 C20            1.5521    -1.8075    -0.0225 C.ar    
  21 C21            2.8407    -2.3202    -0.0375 C.ar    
  22 C22            0.4638    -2.6673    -0.0110 C.ar    
  23 C23            0.6633    -4.0341    -0.0202 C.ar    
  24 C24            1.9519    -4.5467    -0.0415 C.ar    
  25 C25            3.0403    -3.6870    -0.0468 C.ar    
  26 O26            2.1483    -5.8923    -0.0497 O.3     
  27 C27            3.5018    -6.3502    -0.0717 C.3     
  28 H28           -0.4983    -0.3791     0.8948 H       
  29 H29           -0.5153    -0.3696    -0.8850 H       
  30 H30           -3.2091     4.3550    -0.8537 H       
  31 H31           -3.1997     4.3449     0.9384 H       
  32 H32           -0.9128     4.0496     0.9334 H       
  33 H33           -0.9181     4.0669    -0.8594 H       
  34 H34           -4.4982    -0.0729     0.0234 H       
  35 H35           -7.9241     3.4883     0.0609 H       
  36 H36           -5.5410     4.0893     0.0624 H       
  37 H37           -9.6642     2.7474    -0.8249 H       
  38 H38          -10.8246     1.7323     0.0647 H       
  39 H39           -9.6559     2.7371     0.9551 H       
  40 H40           -6.3632    -2.9075     0.0176 H       
  41 H41           -5.3136    -1.7780    -0.8716 H       
  42 H42           -5.3042    -1.7879     0.9084 H       
  43 H43            3.6882    -1.6507    -0.0423 H       
  44 H44           -0.5396    -2.2682     0.0056 H       
  45 H45           -0.1841    -4.7036    -0.0105 H       
  46 H46            4.0437    -4.0861    -0.0637 H       
  47 H47            3.5166    -7.4401    -0.0762 H       
  48 H48            3.9973    -5.9764    -0.9677 H       
  49 H49            4.0239    -5.9834     0.8121 H       
@<TRIPOS>BOND
   1    1    2 1
   2    1    3 2
   3    1    4 am
   4    2   19 1
   5    2   28 1
   6    2   29 1
   7    4    5 1
   8    4    8 1
   9    5    6 2
  10    6    7 1
  11    6    9 1
  12    7    8 1
  13    7   30 1
  14    7   31 1
  15    8   32 1
  16    8   33 1
  17    9   10 ar
  18    9   14 ar
  19   10   11 ar
  20   10   34 1
  21   11   12 ar
  22   11   17 1
  23   12   13 ar
  24   12   15 1
  25   13   14 ar
  26   13   35 1
  27   14   36 1
  28   15   16 1
  29   16   37 1
  30   16   38 1
  31   16   39 1
  32   17   18 1
  33   18   40 1
  34   18   41 1
  35   18   42 1
  36   19   20 1
  37   20   21 ar
  38   20   22 ar
  39   21   25 ar
  40   21   43 1
  41   22   23 ar
  42   22   44 1
  43   23   24 ar
  44   23   45 1
  45   24   25 ar
  46   24   26 1
  47   25   46 1
  48   26   27 1
  49   27   47 1
  50   27   48 1
  51   27   49 1

#	End of record

