#	Name: ASD03090317
#	Creating user name:	WinNT
#	Creation time:	15. 06. 2019 20:28

#	Modifying user name:	WinNT
#	Modification time:	15. 06. 2019 20:28

#	Program:	/corina/corina34_cracker 3.40 0067  02.08.2006

@<TRIPOS>MOLECULE
ASD03090317
  42   44    0    0    0
SMALL
NO_CHARGES


@<TRIPOS>ATOM
   1 N1            -0.2888     0.9212    -0.7963 N.ar    
   2 C2            -0.1672    -0.1670    -0.0586 C.ar    
   3 C3             1.0640    -0.7666     0.1222 C.ar    
   4 C4             2.1886    -0.2036    -0.4897 C.ar    
   5 C5             2.0125     0.9496    -1.2622 C.ar    
   6 C6             0.7466     1.4831    -1.3900 C.ar    
   7 C7             3.5283    -0.8107    -0.3241 C.2     
   8 N8             7.0413    -0.7727    -0.4307 N.pl3   
   9 C9             7.4463     0.4529    -0.9692 C.ar    
  10 C10            8.6352     1.0366    -0.5516 C.ar    
  11 C11            9.0348     2.2487    -1.0855 C.ar    
  12 C12            8.2490     2.8807    -2.0365 C.ar    
  13 C13            7.0620     2.2992    -2.4543 C.ar    
  14 C14            6.6628     1.0844    -1.9263 C.ar    
  15 N15            4.6822    -0.2164    -0.5524 N.2     
  16 C16            5.6818    -1.0616    -0.2978 C.2     
  17 N17            5.1815    -2.2100     0.0975 N.2     
  18 N18            3.7841    -2.0704     0.0935 N.pl3   
  19 C19            2.7990    -3.0906     0.4609 C.3     
  20 C20            2.5465    -3.0360     1.9690 C.3     
  21 C21            1.4285    -4.0144     2.3347 C.3     
  22 F22            8.6400     4.0648    -2.5564 F       
  23 O23            3.7413    -3.3961     2.6653 O.3     
  24 Cl24          -1.5730    -0.8529     0.6944 Cl      
  25 C25            0.5437     2.7246    -2.2198 C.3     
  26 F26            6.2973     2.9165    -3.3812 F       
  27 F27           10.1913     2.8168    -0.6794 F       
  28 H28            1.1568    -1.6565     0.7271 H       
  29 H29            2.8553     1.4155    -1.7511 H       
  30 H30            7.7049    -1.4219    -0.1496 H       
  31 H31            9.2473     0.5448     0.1898 H       
  32 H32            5.7382     0.6314    -2.2522 H       
  33 H33            1.8661    -2.9029    -0.0706 H       
  34 H34            3.1787    -4.0761     0.1915 H       
  35 H35            2.2518    -2.0254     2.2517 H       
  36 H36            1.7232    -5.0250     2.0519 H       
  37 H37            1.2487    -3.9755     3.4090 H       
  38 H38            0.5172    -3.7396     1.8035 H       
  39 H39            4.0623    -4.2853     2.4617 H       
  40 H40            0.3334     2.4418    -3.2513 H       
  41 H41           -0.2953     3.2949    -1.8212 H       
  42 H42            1.4462     3.3349    -2.1871 H       
@<TRIPOS>BOND
   1    1    2 ar
   2    1    6 ar
   3    2    3 ar
   4    2   24 1
   5    3    4 ar
   6    3   28 1
   7    4    5 ar
   8    4    7 1
   9    5    6 ar
  10    5   29 1
  11    6   25 1
  12    7   15 2
  13    7   18 1
  14    8    9 1
  15    8   16 1
  16    8   30 1
  17    9   10 ar
  18    9   14 ar
  19   10   11 ar
  20   10   31 1
  21   11   12 ar
  22   11   27 1
  23   12   13 ar
  24   12   22 1
  25   13   14 ar
  26   13   26 1
  27   14   32 1
  28   15   16 1
  29   16   17 2
  30   17   18 1
  31   18   19 1
  32   19   20 1
  33   19   33 1
  34   19   34 1
  35   20   21 1
  36   20   23 1
  37   20   35 1
  38   21   36 1
  39   21   37 1
  40   21   38 1
  41   23   39 1
  42   25   40 1
  43   25   41 1
  44   25   42 1

#	End of record

