#	Name: ASD05740090
#	Creating user name:	WinNT
#	Creation time:	15. 06. 2019 21:02

#	Modifying user name:	WinNT
#	Modification time:	15. 06. 2019 21:02

#	Program:	/corina/corina34_cracker 3.40 0067  02.08.2006

@<TRIPOS>MOLECULE
ASD05740090
  47   50    0    0    0
SMALL
NO_CHARGES


@<TRIPOS>ATOM
   1 C1            -0.1704     1.4330     0.0525 C.3     
   2 C2             1.5015     0.3471    -4.7788 C.ar    
   3 C3             0.0309    -0.8243     1.2095 C.2     
   4 C4             0.1058    -2.2019     1.1305 C.2     
   5 C5            -0.0854    -0.0708     0.0037 C.2     
   6 C6            -0.1196    -0.7222    -1.1922 C.2     
   7 C7            -0.0392    -2.1307    -1.2166 C.2     
   8 O8             0.0693    -2.8218    -0.0741 O.3     
   9 S9            -0.2634     0.1860    -2.6952 S.3     
  10 C10            1.2849    -0.1054    -3.4841 C.ar    
  11 C11            2.2916    -0.7893    -2.8110 C.ar    
  12 O12           -0.0690    -2.7217    -2.2828 O.2     
  13 C13            2.7223     0.1149    -5.3963 C.ar    
  14 C14            3.7237    -0.5692    -4.7176 C.ar    
  15 C15            3.5051    -1.0183    -3.4290 C.ar    
  16 N16            2.9444     0.5684    -6.6986 N.am    
  17 S17            3.6614    -0.4271    -7.8109 S.o2    
  18 O18            3.7135     0.3035    -9.0286 O.2     
  19 O19            4.8134    -0.9696    -7.1802 O.2     
  20 S20            0.2430    -2.8861     2.7469 S.3     
  21 C21            0.1966    -1.3015     3.4949 C.2     
  22 C22            0.0800    -0.3480     2.5837 C.2     
  23 O23            0.2647    -1.0811     4.8337 O.3     
  24 C24            0.3767    -2.1560     5.6502 C.ar    
  25 N25            0.4449    -1.9686     6.9585 N.ar    
  26 N26            0.4098    -3.3684     5.1205 N.ar    
  27 C27            0.5184    -4.4397     5.8890 C.ar    
  28 C28            0.5979    -4.2800     7.2635 C.ar    
  29 C29            0.5546    -2.9962     7.7843 C.ar    
  30 N30            2.6293    -1.6958    -8.0706 N.am    
  31 C31            1.3201    -1.4612    -8.6848 C.3     
  32 H32            0.8349     1.8528     0.0863 H       
  33 H33           -0.6864     1.7968    -0.8360 H       
  34 H34           -0.7212     1.7371     0.9426 H       
  35 H35            0.7201     0.8746    -5.3056 H       
  36 H36            2.1242    -1.1413    -1.8038 H       
  37 H37            4.6738    -0.7504    -5.1980 H       
  38 H38            4.2852    -1.5496    -2.9041 H       
  39 H39            2.6787     1.4663    -6.9514 H       
  40 H40            0.0337     0.7003     2.8394 H       
  41 H41            0.5446    -5.4264     5.4508 H       
  42 H42            0.6871    -5.1371     7.9145 H       
  43 H43            0.6141    -2.8366     8.8508 H       
  44 H44            2.8916    -2.5943    -7.8160 H       
  45 H45            0.7861    -2.4071    -8.7745 H       
  46 H46            0.7442    -0.7764    -8.0623 H       
  47 H47            1.4561    -1.0254    -9.6746 H       
@<TRIPOS>BOND
   1    1    5 1
   2    1   32 1
   3    1   33 1
   4    1   34 1
   5    2   10 ar
   6    2   13 ar
   7    2   35 1
   8    3    4 2
   9    3    5 1
  10    3   22 1
  11    4   20 1
  12    4    8 1
  13    5    6 2
  14    6    7 1
  15    6    9 1
  16    7    8 1
  17    7   12 2
  18    9   10 1
  19   10   11 ar
  20   11   15 ar
  21   11   36 1
  22   13   14 ar
  23   13   16 1
  24   14   15 ar
  25   14   37 1
  26   15   38 1
  27   16   17 am
  28   16   39 1
  29   17   18 2
  30   17   19 2
  31   17   30 am
  32   20   21 1
  33   21   22 2
  34   21   23 1
  35   22   40 1
  36   23   24 1
  37   24   25 ar
  38   24   26 ar
  39   25   29 ar
  40   26   27 ar
  41   27   28 ar
  42   27   41 1
  43   28   29 ar
  44   28   42 1
  45   29   43 1
  46   30   31 1
  47   30   44 1
  48   31   45 1
  49   31   46 1
  50   31   47 1

#	End of record

