#	Name: ASD04570031
#	Creating user name:	WinNT
#	Creation time:	15. 06. 2019 20:49

#	Modifying user name:	WinNT
#	Modification time:	15. 06. 2019 20:49

#	Program:	/corina/corina34_cracker 3.40 0067  02.08.2006

@<TRIPOS>MOLECULE
ASD04570031
 319  319    0    0    0
SMALL
NO_CHARGES


@<TRIPOS>ATOM
   1 C1            -0.0187     1.5258     0.0104 C.3     
   2 C2             0.0021    -0.0041     0.0020 C.3     
   3 C3            -1.4333    -0.5336     0.0129 C.3     
   4 C4            -1.4126    -2.0635     0.0045 C.3     
   5 C5            -2.8479    -2.5931     0.0153 C.3     
   6 C6            -2.8272    -4.1229     0.0069 C.3     
   7 C7            -4.2626    -4.6525     0.0178 C.3     
   8 C8            -4.2418    -6.1823     0.0094 C.3     
   9 C9            -5.6772    -6.7119     0.0202 C.3     
  10 C10           -5.6565    -8.2417     0.0118 C.3     
  11 C11           -7.0918    -8.7713     0.0227 C.3     
  12 C12           -7.0711   -10.3012     0.0143 C.3     
  13 C13           -8.5065   -10.8307     0.0251 C.3     
  14 C14           -8.4857   -12.3606     0.0167 C.3     
  15 C15           -9.8995   -12.8822     0.0274 C.2     
  16 N16          -10.1278   -14.2105     0.0224 N.am    
  17 O17          -10.8319   -12.1067     0.0405 O.2     
  18 C18          -11.5022   -14.7176     0.0328 C.3     
  19 C19          -11.5336   -16.0963    -0.5748 C.2     
  20 N20          -12.7005   -16.7638    -0.6713 N.am    
  21 O21          -10.5088   -16.6052    -0.9769 O.2     
  22 C22          -12.7310   -18.1041    -1.2620 C.3     
  23 C23          -14.1448   -18.6257    -1.2513 C.2     
  24 N24          -14.4156   -19.8487    -1.7486 N.am    
  25 O25          -15.0389   -17.9449    -0.7952 O.2     
  26 C26          -15.7900   -20.3558    -1.7382 C.3     
  27 C27          -15.9556   -21.3807    -2.8305 C.2     
  28 O28          -15.0179   -21.6600    -3.5472 O.2     
  29 N29          -17.1457   -21.9868    -3.0111 N.am    
  30 C30          -16.0848   -21.0025    -0.3832 C.3     
  31 C31          -16.0395   -19.9512     0.6956 C.ar    
  32 C32          -17.1883   -19.2607     1.0350 C.ar    
  33 C33          -17.3067   -22.9831    -4.0731 C.3     
  34 C34          -16.8528   -24.3517    -3.5615 C.3     
  35 C35          -18.7561   -23.0542    -4.4796 C.2     
  36 O36          -19.5741   -22.3428    -3.9358 O.2     
  37 N37          -19.1434   -23.9085    -5.4475 N.am    
  38 C38          -15.3520   -24.3137    -3.2662 C.3     
  39 C39          -14.9049   -25.6617    -2.7623 C.2     
  40 N40          -13.6130   -25.8646    -2.4361 N.am    
  41 C41          -20.5524   -23.9776    -5.8427 C.3     
  42 C42          -21.0063   -22.6090    -6.3543 C.3     
  43 C43          -20.7180   -25.0025    -6.9350 C.2     
  44 O44          -21.7242   -25.6776    -6.9857 O.2     
  45 N45          -19.7478   -25.1688    -7.8558 N.am    
  46 C46          -19.9088   -26.1650    -8.9177 C.3     
  47 C47          -19.0594   -25.7647   -10.1256 C.3     
  48 C48          -19.4549   -27.5337    -8.4061 C.3     
  49 C49          -19.5931   -24.4568   -10.7134 C.3     
  50 C50          -18.7436   -24.0564   -11.9213 C.3     
  51 C51          -12.0105   -14.7839     1.4744 C.3     
  52 C52          -12.0967   -13.3690     2.0504 C.3     
  53 C53          -17.1494   -18.2966     2.0236 C.ar    
  54 C54          -15.9564   -18.0214     2.6760 C.ar    
  55 C55          -14.8051   -18.7156     2.3336 C.ar    
  56 C56          -14.8505   -19.6828     1.3482 C.ar    
  57 O57          -15.9155   -17.0731     3.6486 O.3     
  58 O58          -15.7075   -26.5640    -2.6504 O.2     
  59 C59          -19.2773   -22.7485   -12.5091 C.3     
  60 N60          -18.4617   -22.3641   -13.6688 N.3     
  61 C61            1.4167     2.0553    -0.0004 C.3     
  62 H62           -9.3821   -14.8307     0.0120 H       
  63 S63          -12.6993   -13.4476     3.7596 S.3     
  64 C64          -12.7328   -11.7046     4.2610 C.3     
  65 C65          -21.4018   -24.3780    -4.6347 C.3     
  66 H66           -0.5459     1.8868    -0.8726 H       
  67 H67           -0.5289     1.8773     0.9072 H       
  68 H68            0.5123    -0.3556    -0.8948 H       
  69 H69            0.5293    -0.3651     0.8851 H       
  70 H70           -1.9435    -0.1821     0.9097 H       
  71 H71           -1.9605    -0.1726    -0.8702 H       
  72 H72           -0.9024    -2.4150    -0.8923 H       
  73 H73           -0.8854    -2.4246     0.8875 H       
  74 H74           -3.3581    -2.2415     0.9121 H       
  75 H75           -3.3751    -2.2320    -0.8677 H       
  76 H76           -2.3170    -4.4744    -0.8899 H       
  77 H77           -2.3000    -4.4840     0.8900 H       
  78 H78           -4.7728    -4.3010     0.9146 H       
  79 H79           -4.7898    -4.2914    -0.8653 H       
  80 H80           -3.7316    -6.5338    -0.8874 H       
  81 H81           -3.7146    -6.5434     0.8924 H       
  82 H82           -6.1874    -6.3604     0.9170 H       
  83 H83           -6.2044    -6.3508    -0.8628 H       
  84 H84           -5.1463    -8.5933    -0.8850 H       
  85 H85           -5.1293    -8.6028     0.8949 H       
  86 H86           -7.6020    -8.4198     0.9195 H       
  87 H87           -7.6190    -8.4102    -0.8604 H       
  88 H88           -6.5609   -10.6527    -0.8825 H       
  89 H89           -6.5439   -10.6622     0.8973 H       
  90 H90           -9.0167   -10.4792     0.9219 H       
  91 H91           -9.0337   -10.4697    -0.8579 H       
  92 H92           -7.9755   -12.7121    -0.8801 H       
  93 H93           -7.9586   -12.7217     0.8998 H       
  94 H94          -12.1400   -14.0504    -0.5470 H       
  95 H95          -13.5201   -16.3567    -0.3497 H       
  96 H96          -12.3689   -18.0568    -2.2890 H       
  97 H97          -12.0931   -18.7712    -0.6822 H       
  98 H98          -13.7005   -20.3932    -2.1133 H       
  99 H99          -16.4828   -19.5311    -1.9056 H       
 100 H100         -17.8957   -21.7634    -2.4379 H       
 101 H101         -17.0749   -21.4577    -0.4056 H       
 102 H102         -15.3374   -21.7683    -0.1758 H       
 103 H103         -18.1167   -19.4750     0.5266 H       
 104 H104         -16.7016   -22.6979    -4.9336 H       
 105 H105         -17.3964   -24.5972    -2.6492 H       
 106 H106         -17.0549   -25.1083    -4.3196 H       
 107 H107         -18.4892   -24.4775    -5.8824 H       
 108 H108         -14.8083   -24.0682    -4.1785 H       
 109 H109         -15.1499   -23.5571    -2.5081 H       
 110 H110         -12.9711   -25.1430    -2.5257 H       
 111 H111         -13.3252   -26.7323    -2.1118 H       
 112 H112         -20.4012   -22.3238    -7.2148 H       
 113 H113         -22.0546   -22.6605    -6.6483 H       
 114 H114         -20.8865   -21.8678    -5.5641 H       
 115 H115         -18.9431   -24.6288    -7.8153 H       
 116 H116         -20.9572   -26.2165    -9.2117 H       
 117 H117         -18.0245   -25.6267    -9.8124 H       
 118 H118         -19.1089   -26.5492   -10.8807 H       
 119 H119         -18.4065   -27.4822    -8.1121 H       
 120 H120         -20.0600   -27.8189    -7.5456 H       
 121 H121         -19.5746   -28.2749    -9.1962 H       
 122 H122         -20.6279   -24.5948   -11.0266 H       
 123 H123         -19.5435   -23.6722    -9.9583 H       
 124 H124         -17.7088   -23.9184   -11.6081 H       
 125 H125         -18.7932   -24.8410   -12.6764 H       
 126 H126         -12.9987   -15.2435     1.4905 H       
 127 H127         -11.3229   -15.3794     2.0751 H       
 128 H128         -11.1085   -12.9094     2.0343 H       
 129 H129         -12.7842   -12.7735     1.4498 H       
 130 H130         -18.0470   -17.7572     2.2881 H       
 131 H131         -13.8752   -18.5032     2.8400 H       
 132 H132         -13.9546   -20.2238     1.0816 H       
 133 H133         -16.0937   -17.4123     4.5364 H       
 134 H134         -20.3121   -22.8865   -12.8223 H       
 135 H135         -19.2278   -21.9639   -11.7540 H       
 136 H136         -18.4391   -23.1028   -14.3558 H       
 137 H137         -18.7944   -21.5025   -14.0752 H       
 138 H138           1.9439     1.6943     0.8826 H       
 139 H139           1.9269     1.7038    -0.8972 H       
 140 H140           1.4019     3.1452     0.0056 H       
 141 H141         -11.7287   -11.2866     4.1896 H       
 142 H142         -13.4045   -11.1507     3.6050 H       
 143 H143         -13.0855   -11.6292     5.2896 H       
 144 H144         -21.2820   -23.6367    -3.8446 H       
 145 H145         -22.4501   -24.4294    -4.9288 H       
 146 H146         -21.0784   -25.3530    -4.2703 H       
 147 C147          23.5488    31.8699    30.7596 C.3     
 148 C148          23.6419    30.4176    30.3680 C.2     
 149 N149          24.8187    29.7678    30.4645 N.am    
 150 C150          24.9093    28.3561    30.0838 C.3     
 151 C151          24.5255    28.2009    28.6348 C.2     
 152 N152          24.9056    27.1036    27.9508 N.am    
 153 C153          24.5325    26.9527    26.5421 C.3     
 154 C154          24.5067    25.4893    26.1832 C.2     
 155 N155          24.1869    25.1082    24.9307 N.am    
 156 O156          24.7736    24.6545    27.0216 O.2     
 157 C157          24.1618    23.6855    24.5818 C.3     
 158 C158          23.2341    23.4711    23.4137 C.2     
 159 C159          25.5720    23.2281    24.2037 C.3     
 160 C160          26.4859    23.3289    25.4267 C.3     
 161 C161          27.8961    22.8715    25.0486 C.3     
 162 C162          28.8100    22.9723    26.2716 C.3     
 163 N163          23.0521    22.2317    22.9164 N.am    
 164 O164          22.6513    24.4138    22.9211 O.2     
 165 C165          22.1502    22.0232    21.7809 C.3     
 166 C166          21.6400    20.6053    21.7983 C.2     
 167 N167          20.4530    20.3093    21.2328 N.am    
 168 O168          22.2976    19.7306    22.3212 O.2     
 169 C169          19.9950    18.9189    21.1763 C.3     
 170 C170          19.5174    18.6036    19.7821 C.2     
 171 O171          19.5558    19.4564    18.9206 O.2     
 172 N172          19.0476    17.3740    19.4927 N.am    
 173 C173          18.5834    17.0675    18.1374 C.3     
 174 C174          19.7753    16.6560    17.2709 C.3     
 175 C175          17.5874    15.9378    18.1911 C.2     
 176 O176          17.2943    15.4378    19.2565 O.2     
 177 N177          17.0225    15.4830    17.0551 N.am    
 178 C178          16.0543    14.3847    17.1072 C.3     
 179 C179          16.7986    13.0479    17.0989 C.3     
 180 C180          15.1439    14.4603    15.9087 C.2     
 181 O181          15.2895    15.3444    15.0914 O.2     
 182 N182          14.1680    13.5453    15.7450 N.am    
 183 C183          13.2830    13.6187    14.5798 C.3     
 184 C184          12.1301    14.5804    14.8749 C.3     
 185 C185          12.7306    12.2487    14.2815 C.2     
 186 O186          13.0451    11.3040    14.9739 O.2     
 187 N187          11.8869    12.0733    13.2451 N.am    
 188 C188          12.6806    15.9965    15.0549 C.3     
 189 C189          11.5278    16.9581    15.3500 C.3     
 190 N190          12.0549    18.3141    15.5224 N.pl3   
 191 C191          11.1991    19.3545    15.7973 C.2     
 192 C192          22.9068    22.2770    20.4754 C.3     
 193 C193          23.3671    23.7353    20.4280 C.3     
 194 O194          22.0450    22.0132    19.3665 O.3     
 195 C195          18.8456    18.7198    22.1663 C.3     
 196 C196          19.3512    18.9259    23.5709 C.2     
 197 O197          18.5105    18.8089    24.6108 O.3     
 198 O198          20.5133    19.1964    23.7611 O.2     
 199 C199          20.7261    17.8443    17.1139 C.3     
 200 C200          21.9180    17.4328    16.2474 C.3     
 201 C201          22.8689    18.6211    16.0905 C.3     
 202 N202          24.0133    18.2260    15.2585 N.3     
 203 C203          17.6151    12.9198    18.3590 C.ar    
 204 C204          17.0601    12.3405    19.4851 C.ar    
 205 C205          18.9199    13.3765    18.3854 C.ar    
 206 C206          19.6706    13.2597    19.5391 C.ar    
 207 C207          19.1143    12.6836    20.6719 C.ar    
 208 C208          17.8065    12.2218    20.6415 C.ar    
 209 N209           9.8488    19.1223    15.9104 N.pl3   
 210 N210          11.6681    20.5609    15.9507 N.2     
 211 C211          25.5555    27.6753    25.6634 C.3     
 212 O212          26.8272    27.0355    25.7883 O.3     
 213 O213          23.8747    29.0635    28.0841 O.2     
 214 C214          23.9591    27.5312    30.9542 C.3     
 215 C215          24.4230    27.5881    32.4111 C.3     
 216 C216          23.4729    26.7632    33.2815 C.3     
 217 N217          23.9170    26.8177    34.6764 N.pl3   
 218 C218          23.2135    26.1468    35.6486 C.2     
 219 N219          22.0932    25.4246    35.3116 N.pl3   
 220 N220          23.6087    26.1953    36.8897 N.2     
 221 O221          22.6579    29.8336    29.9660 O.2     
 222 C222          11.3499    10.7415    12.9551 C.3     
 223 C223          12.3294     9.9803    12.0994 C.2     
 224 C224          10.0208    10.8788    12.2098 C.3     
 225 C225           9.0113    11.6094    13.0975 C.3     
 226 N226          12.2078     8.6452    11.9611 N.am    
 227 O227          13.2270    10.5692    11.5352 O.2     
 228 C228           7.6630    11.6882    12.3786 C.3     
 229 O229          19.8510    12.5673    21.8080 O.3     
 230 C230          10.2381    11.6759    10.9220 C.3     
 231 H231          24.5257    32.2196    31.0931 H       
 232 H232          23.2262    32.4579    29.9003 H       
 233 H233          22.8269    31.9825    31.5685 H       
 234 H234          25.6057    30.2349    30.7860 H       
 235 H235          25.9312    28.0056    30.2285 H       
 236 H236          25.4262    26.4137    28.3912 H       
 237 H237          23.5448    27.3842    26.3797 H       
 238 H238          23.9734    25.7758    24.2602 H       
 239 H239          23.8094    23.1080    25.4364 H       
 240 H240          25.5386    22.1945    23.8593 H       
 241 H241          25.9590    23.8641    23.4076 H       
 242 H242          26.5193    24.3625    25.7711 H       
 243 H243          26.0988    22.6929    26.2228 H       
 244 H244          27.8627    21.8379    24.7042 H       
 245 H245          28.2831    23.5075    24.2525 H       
 246 H246          29.8146    22.6464    26.0023 H       
 247 H247          28.8433    24.0059    26.6160 H       
 248 H248          28.4229    22.3363    27.0677 H       
 249 H249          23.5182    21.4778    23.3104 H       
 250 H250          21.3093    22.7129    21.8534 H       
 251 H251          19.9019    21.0169    20.8633 H       
 252 H252          20.8186    18.2542    21.4372 H       
 253 H253          19.0169    16.6919    20.1817 H       
 254 H254          18.1091    17.9498    17.7076 H       
 255 H255          20.3024    15.8293    17.7470 H       
 256 H256          19.4198    16.3429    16.2891 H       
 257 H257          17.2569    15.8828    16.2030 H       
 258 H258          15.4623    14.4653    18.0189 H       
 259 H259          16.0783    12.2314    17.0481 H       
 260 H260          17.4584    13.0049    16.2324 H       
 261 H261          14.0516    12.8381    16.3986 H       
 262 H262          13.8454    13.9792    13.7185 H       
 263 H263          11.4247    14.5677    14.0440 H       
 264 H264          11.6220    14.2693    15.7876 H       
 265 H265          11.6353    12.8289    12.6913 H       
 266 H266          13.3860    16.0092    15.8858 H       
 267 H267          13.1887    16.3076    14.1421 H       
 268 H268          10.8223    16.9454    14.5191 H       
 269 H269          11.0197    16.6470    16.2628 H       
 270 H270          13.0076    18.4779    15.4426 H       
 271 H271          23.7751    21.6201    20.4252 H       
 272 H272          24.0244    23.9366    21.2739 H       
 273 H273          23.9061    23.9161    19.4980 H       
 274 H274          22.4988    24.3923    20.4783 H       
 275 H275          21.8018    21.0823    19.2701 H       
 276 H276          18.0554    19.4402    21.9552 H       
 277 H277          18.4514    17.7085    22.0668 H       
 278 H278          18.8808    18.9500    25.4928 H       
 279 H279          20.1990    18.6710    16.6378 H       
 280 H280          21.0816    18.1573    18.0957 H       
 281 H281          22.4452    16.6060    16.7236 H       
 282 H282          21.5626    17.1197    15.2657 H       
 283 H283          22.3418    19.4478    15.6143 H       
 284 H284          23.2243    18.9341    17.0722 H       
 285 H285          23.7056    17.8707    14.3656 H       
 286 H286          24.6565    18.9943    15.1398 H       
 287 H287          16.0420    11.9807    19.4608 H       
 288 H288          19.3526    13.8246    17.5031 H       
 289 H289          20.6899    13.6163    19.5591 H       
 290 H290          17.3712    11.7729    21.5221 H       
 291 H291           9.4998    18.2245    15.7962 H       
 292 H292           9.2450    19.8564    16.1043 H       
 293 H293          11.0644    21.2949    16.1446 H       
 294 H294          25.2312    27.6391    24.6234 H       
 295 H295          25.6388    28.7144    25.9821 H       
 296 H296          27.5257    27.4417    25.2572 H       
 297 H297          22.9508    27.9381    30.8778 H       
 298 H298          23.9600    26.4960    30.6128 H       
 299 H299          25.4313    27.1812    32.4875 H       
 300 H300          24.4221    28.6233    32.7525 H       
 301 H301          22.4645    27.1701    33.2050 H       
 302 H302          23.4737    25.7280    32.9401 H       
 303 H303          24.7075    27.3272    34.9142 H       
 304 H304          21.7991    25.3885    34.3880 H       
 305 H305          21.5968    24.9512    35.9975 H       
 306 H306          23.1124    25.7219    37.5756 H       
 307 H307          11.1887    10.2034    13.8892 H       
 308 H308           9.6382     9.8882    11.9638 H       
 309 H309           8.8920    11.0663    14.0350 H       
 310 H310           9.3720    12.6169    13.3047 H       
 311 H311          11.4489     8.1843    12.3517 H       
 312 H312          12.8792     8.1452    11.4711 H       
 313 H313           7.7824    12.2313    11.4411 H       
 314 H314           7.3023    10.6806    12.1715 H       
 315 H315           6.9439    12.2087    13.0111 H       
 316 H316          19.7812    13.3275    22.4016 H       
 317 H317          10.6207    12.6664    11.1680 H       
 318 H318          10.9573    11.1553    10.2896 H       
 319 H319           9.2912    11.7736    10.3910 H       
@<TRIPOS>BOND
   1    1    2 1
   2    1   61 1
   3    1   66 1
   4    1   67 1
   5    2    3 1
   6    2   68 1
   7    2   69 1
   8    3    4 1
   9    3   70 1
  10    3   71 1
  11    4    5 1
  12    4   72 1
  13    4   73 1
  14    5    6 1
  15    5   74 1
  16    5   75 1
  17    6    7 1
  18    6   76 1
  19    6   77 1
  20    7    8 1
  21    7   78 1
  22    7   79 1
  23    8    9 1
  24    8   80 1
  25    8   81 1
  26    9   10 1
  27    9   82 1
  28    9   83 1
  29   10   11 1
  30   10   84 1
  31   10   85 1
  32   11   12 1
  33   11   86 1
  34   11   87 1
  35   12   13 1
  36   12   88 1
  37   12   89 1
  38   13   14 1
  39   13   90 1
  40   13   91 1
  41   14   15 1
  42   14   92 1
  43   14   93 1
  44   15   16 am
  45   15   17 2
  46   16   18 1
  47   16   62 1
  48   18   19 1
  49   18   51 1
  50   18   94 1
  51   19   20 am
  52   19   21 2
  53   20   22 1
  54   20   95 1
  55   22   23 1
  56   22   96 1
  57   22   97 1
  58   23   24 am
  59   23   25 2
  60   24   26 1
  61   24   98 1
  62   26   27 1
  63   26   30 1
  64   26   99 1
  65   27   28 2
  66   27   29 am
  67   29   33 1
  68   29  100 1
  69   30   31 1
  70   30  101 1
  71   30  102 1
  72   31   32 ar
  73   31   56 ar
  74   32   53 ar
  75   32  103 1
  76   33   34 1
  77   33   35 1
  78   33  104 1
  79   34   38 1
  80   34  105 1
  81   34  106 1
  82   35   36 2
  83   35   37 am
  84   37   41 1
  85   37  107 1
  86   38   39 1
  87   38  108 1
  88   38  109 1
  89   39   40 am
  90   39   58 2
  91   40  110 1
  92   40  111 1
  93   41   42 1
  94   41   43 1
  95   41   65 1
  96   42  112 1
  97   42  113 1
  98   42  114 1
  99   43   44 2
 100   43   45 am
 101   45   46 1
 102   45  115 1
 103   46   47 1
 104   46   48 1
 105   46  116 1
 106   47   49 1
 107   47  117 1
 108   47  118 1
 109   48  119 1
 110   48  120 1
 111   48  121 1
 112   49   50 1
 113   49  122 1
 114   49  123 1
 115   50   59 1
 116   50  124 1
 117   50  125 1
 118   51   52 1
 119   51  126 1
 120   51  127 1
 121   52   63 1
 122   52  128 1
 123   52  129 1
 124   53   54 ar
 125   53  130 1
 126   54   55 ar
 127   54   57 1
 128   55   56 ar
 129   55  131 1
 130   56  132 1
 131   57  133 1
 132   59   60 1
 133   59  134 1
 134   59  135 1
 135   60  136 1
 136   60  137 1
 137   61  138 1
 138   61  139 1
 139   61  140 1
 140   63   64 1
 141   64  141 1
 142   64  142 1
 143   64  143 1
 144   65  144 1
 145   65  145 1
 146   65  146 1
 147  147  148 1
 148  147  231 1
 149  147  232 1
 150  147  233 1
 151  148  149 am
 152  148  221 2
 153  149  150 1
 154  149  234 1
 155  150  151 1
 156  150  214 1
 157  150  235 1
 158  151  152 am
 159  151  213 2
 160  152  153 1
 161  152  236 1
 162  153  154 1
 163  153  211 1
 164  153  237 1
 165  154  155 am
 166  154  156 2
 167  155  157 1
 168  155  238 1
 169  157  158 1
 170  157  159 1
 171  157  239 1
 172  158  163 am
 173  158  164 2
 174  159  160 1
 175  159  240 1
 176  159  241 1
 177  160  161 1
 178  160  242 1
 179  160  243 1
 180  161  162 1
 181  161  244 1
 182  161  245 1
 183  162  246 1
 184  162  247 1
 185  162  248 1
 186  163  165 1
 187  163  249 1
 188  165  166 1
 189  165  192 1
 190  165  250 1
 191  166  167 am
 192  166  168 2
 193  167  169 1
 194  167  251 1
 195  169  170 1
 196  169  195 1
 197  169  252 1
 198  170  171 2
 199  170  172 am
 200  172  173 1
 201  172  253 1
 202  173  174 1
 203  173  175 1
 204  173  254 1
 205  174  199 1
 206  174  255 1
 207  174  256 1
 208  175  176 2
 209  175  177 am
 210  177  178 1
 211  177  257 1
 212  178  179 1
 213  178  180 1
 214  178  258 1
 215  179  203 1
 216  179  259 1
 217  179  260 1
 218  180  181 2
 219  180  182 am
 220  182  183 1
 221  182  261 1
 222  183  184 1
 223  183  185 1
 224  183  262 1
 225  184  188 1
 226  184  263 1
 227  184  264 1
 228  185  186 2
 229  185  187 am
 230  187  222 1
 231  187  265 1
 232  188  189 1
 233  188  266 1
 234  188  267 1
 235  189  190 1
 236  189  268 1
 237  189  269 1
 238  190  191 1
 239  190  270 1
 240  191  209 1
 241  191  210 2
 242  192  193 1
 243  192  194 1
 244  192  271 1
 245  193  272 1
 246  193  273 1
 247  193  274 1
 248  194  275 1
 249  195  196 1
 250  195  276 1
 251  195  277 1
 252  196  197 1
 253  196  198 2
 254  197  278 1
 255  199  200 1
 256  199  279 1
 257  199  280 1
 258  200  201 1
 259  200  281 1
 260  200  282 1
 261  201  202 1
 262  201  283 1
 263  201  284 1
 264  202  285 1
 265  202  286 1
 266  203  204 ar
 267  203  205 ar
 268  204  208 ar
 269  204  287 1
 270  205  206 ar
 271  205  288 1
 272  206  207 ar
 273  206  289 1
 274  207  208 ar
 275  207  229 1
 276  208  290 1
 277  209  291 1
 278  209  292 1
 279  210  293 1
 280  211  212 1
 281  211  294 1
 282  211  295 1
 283  212  296 1
 284  214  215 1
 285  214  297 1
 286  214  298 1
 287  215  216 1
 288  215  299 1
 289  215  300 1
 290  216  217 1
 291  216  301 1
 292  216  302 1
 293  217  218 1
 294  217  303 1
 295  218  219 1
 296  218  220 2
 297  219  304 1
 298  219  305 1
 299  220  306 1
 300  222  223 1
 301  222  224 1
 302  222  307 1
 303  223  226 am
 304  223  227 2
 305  224  225 1
 306  224  230 1
 307  224  308 1
 308  225  228 1
 309  225  309 1
 310  225  310 1
 311  226  311 1
 312  226  312 1
 313  228  313 1
 314  228  314 1
 315  228  315 1
 316  229  316 1
 317  230  317 1
 318  230  318 1
 319  230  319 1

#	End of record

