#	Name: ASD01152483
#	Creating user name:	WinNT
#	Creation time:	15. 06. 2019 19:05

#	Modifying user name:	WinNT
#	Modification time:	15. 06. 2019 19:05

#	Program:	/corina/corina34_cracker 3.40 0067  02.08.2006

@<TRIPOS>MOLECULE
ASD01152483
  46   48    0    0    0
SMALL
NO_CHARGES


@<TRIPOS>ATOM
   1 C1             0.1107     1.1569    -0.6965 C.2     
   2 N2             0.0184    -0.1438    -0.6179 N.2     
   3 N3            -1.1208    -0.7663    -0.1081 N.am    
   4 C4            -2.2618    -0.0996     0.1332 C.2     
   5 C5            -2.3931     1.3532    -0.2595 C.3     
   6 C6            -1.0091     1.9734    -0.2041 C.2     
   7 C7            -2.9569     1.4574    -1.6780 C.3     
   8 O8            -0.8367     3.0970     0.2214 O.2     
   9 C9            -1.0736    -2.1392     0.1619 C.ar    
  10 O10           -3.1905    -0.6665     0.6685 O.2     
  11 C11           -3.2001     2.9055    -2.0168 C.ar    
  12 C12           -0.0101    -2.6697     0.8787 C.ar    
  13 C13           -2.0943    -2.9704    -0.2825 C.ar    
  14 C14           -2.0494    -4.3253    -0.0164 C.ar    
  15 C15           -0.9885    -4.8585     0.6937 C.ar    
  16 C16            0.0336    -4.0301     1.1451 C.ar    
  17 C17           -2.1994     3.6541    -2.6078 C.ar    
  18 C18           -4.4257     3.4828    -1.7414 C.ar    
  19 C19           -4.6502     4.8105    -2.0525 C.ar    
  20 C20           -3.6470     5.5627    -2.6396 C.ar    
  21 C21           -2.4215     4.9821    -2.9193 C.ar    
  22 F22           -0.9475    -6.1838     0.9528 F       
  23 F23           -3.8653     6.8607    -2.9441 F       
  24 N24            1.1054    -4.5690     1.8677 N.am    
  25 C25            1.7698    -3.8055     2.7576 C.2     
  26 O26            1.5003    -2.6279     2.8670 O.2     
  27 C27            2.8477    -4.4147     3.6167 C.3     
  28 O28            1.2204     1.7434    -1.2172 O.3     
  29 C29            2.2629     0.8753    -1.6663 C.3     
  30 H30           -3.0536     1.8662     0.4395 H       
  31 H31           -2.2432     1.0339    -2.3847 H       
  32 H32           -3.8963     0.9077    -1.7370 H       
  33 H33            0.7822    -2.0243     1.2282 H       
  34 H34           -2.9241    -2.5569    -0.8365 H       
  35 H35           -2.8440    -4.9694    -0.3629 H       
  36 H36           -1.2436     3.2011    -2.8259 H       
  37 H37           -5.2082     2.8959    -1.2835 H       
  38 H38           -5.6080     5.2611    -1.8379 H       
  39 H39           -1.6380     5.5679    -3.3769 H       
  40 H40            1.3695    -5.4918     1.7277 H       
  41 H41            2.9468    -5.4738     3.3786 H       
  42 H42            3.7941    -3.9091     3.4252 H       
  43 H43            2.5816    -4.3020     4.6677 H       
  44 H44            3.0878     1.4705    -2.0578 H       
  45 H45            2.6160     0.2696    -0.8317 H       
  46 H46            1.8800     0.2238    -2.4518 H       
@<TRIPOS>BOND
   1    1    2 2
   2    1   28 1
   3    1    6 1
   4    2    3 1
   5    3    4 am
   6    3    9 1
   7    4    5 1
   8    4   10 2
   9    5    6 1
  10    5    7 1
  11    5   30 1
  12    6    8 2
  13    7   11 1
  14    7   31 1
  15    7   32 1
  16    9   12 ar
  17    9   13 ar
  18   11   17 ar
  19   11   18 ar
  20   12   16 ar
  21   12   33 1
  22   13   14 ar
  23   13   34 1
  24   14   15 ar
  25   14   35 1
  26   15   16 ar
  27   15   22 1
  28   16   24 1
  29   17   21 ar
  30   17   36 1
  31   18   19 ar
  32   18   37 1
  33   19   20 ar
  34   19   38 1
  35   20   21 ar
  36   20   23 1
  37   21   39 1
  38   24   25 am
  39   24   40 1
  40   25   26 2
  41   25   27 1
  42   27   41 1
  43   27   42 1
  44   27   43 1
  45   28   29 1
  46   29   44 1
  47   29   45 1
  48   29   46 1

#	End of record

