#	Name: ASD00311256
#	Creating user name:	WinNT
#	Creation time:	15. 06. 2019 18:34

#	Modifying user name:	WinNT
#	Modification time:	15. 06. 2019 18:34

#	Program:	/corina/corina34_cracker 3.40 0067  02.08.2006

@<TRIPOS>MOLECULE
ASD00311256
  39   42    0    0    0
SMALL
NO_CHARGES


@<TRIPOS>ATOM
   1 C1            -0.0167     1.3778     0.0096 C.2     
   2 C2             0.0021    -0.0041     0.0020 C.2     
   3 C3             1.2589    -0.6766    -0.0140 C.2     
   4 C4             2.4315     0.0673    -0.0217 C.2     
   5 C5             2.3574     1.4753    -0.0134 C.2     
   6 N6             1.1648     2.0904     0.0022 N.am    
   7 C7            -1.3431    -0.5750     0.0123 C.2     
   8 C8            -2.3224     0.3257     0.0268 C.2     
   9 S9            -1.6794     1.9560     0.0358 S.3     
  10 O10            3.3822     2.1374    -0.0196 O.2     
  11 C11           -1.5955    -2.0355     0.0065 C.ar    
  12 C12           -2.4692    -2.5984     0.9359 C.ar    
  13 C13           -2.7002    -3.9588     0.9257 C.ar    
  14 C14           -2.0670    -4.7637    -0.0043 C.ar    
  15 C15           -1.1987    -4.2110    -0.9286 C.ar    
  16 C16           -0.9646    -2.8510    -0.9321 C.ar    
  17 C17            3.7477    -0.6119    -0.0379 C.ar    
  18 C18            4.5932    -0.4744    -1.1388 C.ar    
  19 C19            5.8178    -1.1096    -1.1481 C.ar    
  20 C20            6.2079    -1.8820    -0.0684 C.ar    
  21 C21            5.3739    -2.0222     1.0262 C.ar    
  22 C22            4.1491    -1.3867     1.0499 C.ar    
  23 C23            6.7325    -0.9621    -2.3367 C.3     
  24 F24            7.5692     0.1430    -2.1470 F       
  25 F25            7.5096    -2.1174    -2.4732 F       
  26 F26            5.9678    -0.7751    -3.4931 F       
  27 O27            1.3089    -2.0291    -0.0214 O.3     
  28 H28            1.1326     3.0598     0.0073 H       
  29 H29           -3.3749     0.0839     0.0359 H       
  30 H30           -2.9639    -1.9710     1.6626 H       
  31 H31           -3.3765    -4.3961     1.6453 H       
  32 H32           -2.2509    -5.8280    -0.0085 H       
  33 H33           -0.7069    -4.8444    -1.6520 H       
  34 H34           -0.2903    -2.4199    -1.6572 H       
  35 H35            4.2895     0.1277    -1.9825 H       
  36 H36            7.1672    -2.3779    -0.0805 H       
  37 H37            5.6838    -2.6264     1.8660 H       
  38 H38            3.5006    -1.4933     1.9070 H       
  39 H39            2.2062    -2.3895    -0.0322 H       
@<TRIPOS>BOND
   1    1    2 2
   2    1    6 1
   3    1    9 1
   4    2    3 1
   5    2    7 1
   6    3    4 2
   7    3   27 1
   8    4    5 1
   9    4   17 1
  10    5    6 am
  11    5   10 2
  12    6   28 1
  13    7    8 2
  14    7   11 1
  15    8    9 1
  16    8   29 1
  17   11   12 ar
  18   11   16 ar
  19   12   13 ar
  20   12   30 1
  21   13   14 ar
  22   13   31 1
  23   14   15 ar
  24   14   32 1
  25   15   16 ar
  26   15   33 1
  27   16   34 1
  28   17   18 ar
  29   17   22 ar
  30   18   19 ar
  31   18   35 1
  32   19   20 ar
  33   19   23 1
  34   20   21 ar
  35   20   36 1
  36   21   22 ar
  37   21   37 1
  38   22   38 1
  39   23   24 1
  40   23   25 1
  41   23   26 1
  42   27   39 1

#	End of record

