#	Name: ASD02190017
#	Creating user name:	WinNT
#	Creation time:	15. 06. 2019 20:18

#	Modifying user name:	WinNT
#	Modification time:	15. 06. 2019 20:18

#	Program:	/corina/corina34_cracker 3.40 0067  02.08.2006

@<TRIPOS>MOLECULE
ASD02190017
  47   49    0    0    0
SMALL
NO_CHARGES


@<TRIPOS>ATOM
   1 C1             0.0500     0.7516     0.6053 C.ar    
   2 C2            -0.1152    -0.6313     0.6520 C.ar    
   3 C3             0.9838    -1.4498     0.8174 C.ar    
   4 C4             2.2472    -0.8998     0.9371 C.ar    
   5 C5             2.4171     0.4725     0.8919 C.ar    
   6 C6             1.3257     1.3004     0.7260 C.ar    
   7 C7            -3.3261     3.2904     0.0790 C.ar    
   8 C8            -3.2108     2.5245     1.2248 C.ar    
   9 C9            -2.1166     1.6976     1.4019 C.ar    
  10 C10           -1.1263     1.6359     0.4216 C.ar    
  11 C11           -1.2478     2.4123    -0.7348 C.ar    
  12 C12           -2.3497     3.2360    -0.8982 C.ar    
  13 C13           -4.2807     2.5917     2.2839 C.3     
  14 C14           -3.8792     3.5878     3.3411 C.ar    
  15 C15           -4.2460     4.9149     3.2135 C.ar    
  16 C16           -3.8795     5.8303     4.1807 C.ar    
  17 C17           -3.1423     5.4165     5.2823 C.ar    
  18 C18           -2.7758     4.0830     5.4077 C.ar    
  19 C19           -3.1495     3.1717     4.4395 C.ar    
  20 C20           -0.4794     3.1801    -2.8490 C.3     
  21 O21           -0.2883     2.3593    -1.6949 O.3     
  22 N22            0.8100    -2.9189     0.8673 N.pl3   
  23 O23           -0.3021    -3.4045     0.7623 O.2     
  24 N24           -2.7690     6.3416     6.2638 N.am    
  25 O25            1.7791    -3.6422     1.0132 O.2     
  26 C26           -3.6004     7.3512     6.5893 C.2     
  27 N27           -3.2835     8.1864     7.5985 N.am    
  28 O28           -4.6363     7.5085     5.9725 O.2     
  29 F29           -2.0069     0.9511     2.5225 F       
  30 H30           -1.1014    -1.0618     0.5593 H       
  31 H31            3.1043    -1.5440     1.0668 H       
  32 H32            3.4058     0.8965     0.9863 H       
  33 H33            1.4595     2.3714     0.6901 H       
  34 H34           -4.1854     3.9307    -0.0551 H       
  35 H35           -2.4462     3.8365    -1.7906 H       
  36 H36           -5.2219     2.9027     1.8304 H       
  37 H37           -4.4039     1.6089     2.7388 H       
  38 H38           -4.8194     5.2361     2.3565 H       
  39 H39           -4.1658     6.8668     4.0801 H       
  40 H40           -2.2021     3.7582     6.2632 H       
  41 H41           -2.8683     2.1336     4.5385 H       
  42 H42           -1.4072     2.8974    -3.3463 H       
  43 H43           -0.5334     4.2258    -2.5463 H       
  44 H44            0.3567     3.0431    -3.5348 H       
  45 H45           -1.9119     6.2562     6.7099 H       
  46 H46           -2.4570     8.0609     8.0906 H       
  47 H47           -3.8818     8.9130     7.8327 H       
@<TRIPOS>BOND
   1    1    2 ar
   2    1    6 ar
   3    1   10 1
   4    2    3 ar
   5    2   30 1
   6    3    4 ar
   7    3   22 1
   8    4    5 ar
   9    4   31 1
  10    5    6 ar
  11    5   32 1
  12    6   33 1
  13    7    8 ar
  14    7   12 ar
  15    7   34 1
  16    8    9 ar
  17    8   13 1
  18    9   10 ar
  19    9   29 1
  20   10   11 ar
  21   11   12 ar
  22   11   21 1
  23   12   35 1
  24   13   14 1
  25   13   36 1
  26   13   37 1
  27   14   15 ar
  28   14   19 ar
  29   15   16 ar
  30   15   38 1
  31   16   17 ar
  32   16   39 1
  33   17   18 ar
  34   17   24 1
  35   18   19 ar
  36   18   40 1
  37   19   41 1
  38   20   21 1
  39   20   42 1
  40   20   43 1
  41   20   44 1
  42   22   23 2
  43   22   25 2
  44   24   26 am
  45   24   45 1
  46   26   27 am
  47   26   28 2
  48   27   46 1
  49   27   47 1

#	End of record

