#	Name: ASD00191015
#	Creating user name:	WinNT
#	Creation time:	15. 06. 2019 18:33

#	Modifying user name:	WinNT
#	Modification time:	15. 06. 2019 18:33

#	Program:	/corina/corina34_cracker 3.40 0067  02.08.2006

@<TRIPOS>MOLECULE
ASD00191015
  40   43    0    0    0
SMALL
NO_CHARGES


@<TRIPOS>ATOM
   1 C1             0.2297     1.4438     0.3131 C.2     
   2 C2             0.0623     0.0038     0.0958 C.2     
   3 O3             0.6163    -0.5385    -0.8424 O.2     
   4 N4            -0.7052    -0.7197     0.9349 N.am    
   5 N5            -1.0399    -4.8372     0.4075 N.ar    
   6 C6             0.0398    -4.2026    -0.0049 C.ar    
   7 C7             0.1853    -2.8212     0.1558 C.ar    
   8 C8            -0.8210    -2.0940     0.7605 C.ar    
   9 C9            -1.9752    -2.7904     1.1984 C.ar    
  10 C10           -3.0364    -2.1195     1.8196 C.ar    
  11 C11           -4.1317    -2.8213     2.2277 C.ar    
  12 C12           -4.2087    -4.1976     2.0353 C.ar    
  13 C13           -3.1942    -4.8799     1.4347 C.ar    
  14 C14           -2.0502    -4.1895     1.0008 C.ar    
  15 N15            1.0576    -4.9239    -0.6141 N.pl3   
  16 C16            1.0259    -6.3212    -0.6051 C.ar    
  17 C17            2.2061    -7.0450    -0.7190 C.ar    
  18 C18            2.1712    -8.4255    -0.7098 C.ar    
  19 C19            0.9631    -9.0874    -0.5878 C.ar    
  20 C20           -0.2136    -8.3699    -0.4746 C.ar    
  21 C21           -0.1852    -6.9892    -0.4764 C.ar    
  22 C22            0.9751     2.2905    -0.4569 C.2     
  23 C23            0.8522     3.5674     0.1124 C.2     
  24 C24            0.0475     3.4461     1.1913 C.2     
  25 O25           -0.3303     2.1662     1.3056 O.3     
  26 H26           -1.1767    -0.2814     1.6605 H       
  27 H27            1.0803    -2.3257    -0.1904 H       
  28 H28           -2.9870    -1.0518     1.9747 H       
  29 H29           -4.9494    -2.3031     2.7065 H       
  30 H30           -5.0860    -4.7328     2.3675 H       
  31 H31           -3.2692    -5.9478     1.2923 H       
  32 H32            1.7907    -4.4581    -1.0459 H       
  33 H33            3.1498    -6.5287    -0.8150 H       
  34 H34            3.0883    -8.9889    -0.7983 H       
  35 H35            0.9386   -10.1671    -0.5812 H       
  36 H36           -1.1555    -8.8900    -0.3802 H       
  37 H37           -1.1041    -6.4294    -0.3828 H       
  38 H38            1.5483     2.0281    -1.3339 H       
  39 H39            1.3142     4.4761    -0.2444 H       
  40 H40           -0.2465     4.2498     1.8502 H       
@<TRIPOS>BOND
   1    1    2 1
   2    1   22 2
   3    1   25 1
   4    2    3 2
   5    2    4 am
   6    4    8 1
   7    4   26 1
   8    5    6 ar
   9    5   14 ar
  10    6    7 ar
  11    6   15 1
  12    7    8 ar
  13    7   27 1
  14    8    9 ar
  15    9   10 ar
  16    9   14 ar
  17   10   11 ar
  18   10   28 1
  19   11   12 ar
  20   11   29 1
  21   12   13 ar
  22   12   30 1
  23   13   14 ar
  24   13   31 1
  25   15   16 1
  26   15   32 1
  27   16   17 ar
  28   16   21 ar
  29   17   18 ar
  30   17   33 1
  31   18   19 ar
  32   18   34 1
  33   19   20 ar
  34   19   35 1
  35   20   21 ar
  36   20   36 1
  37   21   37 1
  38   22   23 1
  39   22   38 1
  40   23   24 2
  41   23   39 1
  42   24   25 1
  43   24   40 1

#	End of record

