#	Name: ASD01810423
#	Creating user name:	WinNT
#	Creation time:	15. 06. 2019 19:24

#	Modifying user name:	WinNT
#	Modification time:	15. 06. 2019 19:24

#	Program:	/corina/corina34_cracker 3.40 0067  02.08.2006

@<TRIPOS>MOLECULE
ASD01810423
  43   46    0    0    0
SMALL
NO_CHARGES


@<TRIPOS>ATOM
   1 C1            -0.0168     1.3849     0.0097 C.ar    
   2 C2             0.0021    -0.0041     0.0020 C.ar    
   3 C3             2.3852     0.0862    -0.0203 C.ar    
   4 C4             2.2847     1.4859    -0.0118 C.ar    
   5 N5             1.0984     2.0803     0.0027 N.ar    
   6 N6             3.6167    -0.5279    -0.0344 N.pl3   
   7 C7             4.7681     0.1557    -0.0403 C.2     
   8 C8             4.8016     1.5362    -0.0330 C.2     
   9 C9             3.5325     2.2790    -0.0190 C.2     
  10 O10            3.5102     3.4971    -0.0125 O.2     
  11 C11            6.0857     2.2521    -0.0399 C.2     
  12 C12            3.6703    -1.9919    -0.0429 C.3     
  13 C13            3.6763    -2.4861    -1.4666 C.ar    
  14 O14            7.1291     1.6285    -0.0520 O.2     
  15 O15            6.1060     3.5999    -0.0327 O.3     
  16 C16            4.8776    -2.6681    -2.1277 C.ar    
  17 C17            4.8889    -3.1205    -3.4316 C.ar    
  18 C18            3.6873    -3.3940    -4.0819 C.ar    
  19 C19            2.4801    -3.2088    -3.4111 C.ar    
  20 C20            2.4807    -2.7614    -2.1054 C.ar    
  21 C21            3.6931    -3.8802    -5.4839 C.ar    
  22 C22            2.4915    -4.1536    -6.1342 C.ar    
  23 C23            2.5029    -4.6056    -7.4382 C.ar    
  24 C24            3.7041    -4.7877    -8.0993 C.ar    
  25 C25            4.8999    -4.5182    -7.4585 C.ar    
  26 C26            4.9001    -4.0594    -6.1567 C.ar    
  27 C27            1.2112    -0.6712    -0.0132 C.ar    
  28 H28           -0.9646     1.9025     0.0169 H       
  29 H29           -0.9242    -0.5595     0.0083 H       
  30 H30            5.7001    -0.3899    -0.0507 H       
  31 H31            4.5775    -2.3252     0.4612 H       
  32 H32            2.7987    -2.3904     0.4764 H       
  33 H33            6.9741     4.0259    -0.0376 H       
  34 H34            5.8083    -2.4555    -1.6229 H       
  35 H35            5.8274    -3.2620    -3.9470 H       
  36 H36            1.5459    -3.4193    -3.9104 H       
  37 H37            1.5457    -2.6175    -1.5845 H       
  38 H38            1.5531    -4.0125    -5.6186 H       
  39 H39            1.5721    -4.8179    -7.9432 H       
  40 H40            3.7084    -5.1419    -9.1196 H       
  41 H41            5.8350    -4.6625    -7.9792 H       
  42 H42            5.8343    -3.8490    -5.6574 H       
  43 H43            1.2483    -1.7505    -0.0189 H       
@<TRIPOS>BOND
   1    1    2 ar
   2    1    5 ar
   3    1   28 1
   4    2   27 ar
   5    2   29 1
   6    3    4 ar
   7    3    6 1
   8    3   27 ar
   9    4    5 ar
  10    4    9 1
  11    6    7 1
  12    6   12 1
  13    7    8 2
  14    7   30 1
  15    8    9 1
  16    8   11 1
  17    9   10 2
  18   11   14 2
  19   11   15 1
  20   12   13 1
  21   12   31 1
  22   12   32 1
  23   13   16 ar
  24   13   20 ar
  25   15   33 1
  26   16   17 ar
  27   16   34 1
  28   17   18 ar
  29   17   35 1
  30   18   19 ar
  31   18   21 1
  32   19   20 ar
  33   19   36 1
  34   20   37 1
  35   21   22 ar
  36   21   26 ar
  37   22   23 ar
  38   22   38 1
  39   23   24 ar
  40   23   39 1
  41   24   25 ar
  42   24   40 1
  43   25   26 ar
  44   25   41 1
  45   26   42 1
  46   27   43 1

#	End of record

