#	Name: ASD03430467
#	Creating user name:	WinNT
#	Creation time:	15. 06. 2019 20:41

#	Modifying user name:	WinNT
#	Modification time:	15. 06. 2019 20:41

#	Program:	/corina/corina34_cracker 3.40 0067  02.08.2006

@<TRIPOS>MOLECULE
ASD03430467
  23   24    0    0    0
SMALL
NO_CHARGES


@<TRIPOS>ATOM
   1 O1            -0.0164     1.3573     0.0095 O.3     
   2 C2             0.0021    -0.0041     0.0020 C.ar    
   3 C3             1.1557    -0.7103    -0.3174 C.ar    
   4 N4             2.3550    -0.0604    -0.6388 N.3     
   5 C5             2.1355     1.3313    -1.0499 C.3     
   6 C6             1.2533     2.0180     0.0009 C.3     
   7 C7             1.1322    -2.1007    -0.3196 C.ar    
   8 C8            -0.0288    -2.7787    -0.0037 C.ar    
   9 C9            -1.1787    -2.0741     0.3179 C.ar    
  10 C10           -1.1621    -0.6880     0.3208 C.ar    
  11 O11           -2.3215    -2.7420     0.6301 O.3     
  12 C12            3.0968    -0.8023    -1.6670 C.3     
  13 H13            3.0928     1.8480    -1.1183 H       
  14 H14            1.6353     1.3523    -2.0181 H       
  15 H15            1.1206     3.0683    -0.2585 H       
  16 H16            1.7182     1.9359     0.9834 H       
  17 H17            2.0260    -2.6530    -0.5699 H       
  18 H18           -0.0410    -3.8586    -0.0075 H       
  19 H19           -2.0577    -0.1392     0.5719 H       
  20 H20           -2.4168    -2.9397     1.5718 H       
  21 H21            2.4632    -0.9410    -2.5431 H       
  22 H22            3.9878    -0.2411    -1.9483 H       
  23 H23            3.3897    -1.7754    -1.2727 H       
@<TRIPOS>BOND
   1    1    2 1
   2    1    6 1
   3    2    3 ar
   4    2   10 ar
   5    3    4 1
   6    3    7 ar
   7    4    5 1
   8    4   12 1
   9    5    6 1
  10    5   13 1
  11    5   14 1
  12    6   15 1
  13    6   16 1
  14    7    8 ar
  15    7   17 1
  16    8    9 ar
  17    8   18 1
  18    9   10 ar
  19    9   11 1
  20   10   19 1
  21   11   20 1
  22   12   21 1
  23   12   22 1
  24   12   23 1

#	End of record

