#	Name: ASD03540087
#	Creating user name:	WinNT
#	Creation time:	15. 06. 2019 20:42

#	Modifying user name:	WinNT
#	Modification time:	15. 06. 2019 20:42

#	Program:	/corina/corina34_cracker 3.40 0067  02.08.2006

@<TRIPOS>MOLECULE
ASD03540087
  46   48    0    0    0
SMALL
NO_CHARGES


@<TRIPOS>ATOM
   1 C1            -0.0180     1.4732     0.0101 C.2     
   2 C2             0.0021    -0.0041     0.0020 C.ar    
   3 C3             1.2173    -0.6860    -0.0132 C.ar    
   4 C4             1.2270    -2.0795    -0.0203 C.ar    
   5 C5             2.5105    -2.8109    -0.0360 C.2     
   6 C6             0.0198    -2.7834    -0.0121 C.ar    
   7 C7            -1.1806    -2.1014     0.0026 C.ar    
   8 C8            -1.1975    -0.7208     0.0155 C.ar    
   9 O9             1.0256     2.0948     0.0035 O.2     
  10 O10           -1.1936     2.1308     0.0193 O.3     
  11 O11            3.5590    -2.1976    -0.0428 O.2     
  12 O12            2.5181    -4.1579    -0.0429 O.3     
  13 N13           -2.4553    -2.8538     0.0102 N.pl3   
  14 O14           -2.4436    -4.0717     0.0036 O.2     
  15 O15           -3.5158    -2.2550     0.0232 O.2     
  16 C16           -1.1373     3.5817     0.0269 C.3     
  17 C17           -2.5375     4.1387     0.0366 C.ar    
  18 C18           -3.1741     4.3877     1.2381 C.ar    
  19 C19           -4.4585     4.8986     1.2470 C.ar    
  20 C20           -5.1062     5.1609     0.0543 C.ar    
  21 C21           -4.4694     4.9128    -1.1472 C.ar    
  22 C22           -3.1833     4.4060    -1.1561 C.ar    
  23 C23            3.8155    -4.8098    -0.0583 C.3     
  24 C24            3.6264    -6.3049    -0.0640 C.ar    
  25 C25            3.5285    -6.9846    -1.2637 C.ar    
  26 C26            3.3551    -8.3560    -1.2690 C.ar    
  27 C27            3.2800    -9.0477    -0.0746 C.ar    
  28 C28            3.3788    -8.3682     1.1251 C.ar    
  29 C29            3.5566    -6.9973     1.1304 C.ar    
  30 H30            2.1473    -0.1370    -0.0199 H       
  31 H31            0.0259    -3.8634    -0.0176 H       
  32 H32           -2.1399    -0.1936     0.0318 H       
  33 H33           -0.6055     3.9200     0.9162 H       
  34 H34           -0.6140     3.9297    -0.8637 H       
  35 H35           -2.6680     4.1827     2.1700 H       
  36 H36           -4.9561     5.0924     2.1857 H       
  37 H37           -6.1100     5.5594     0.0612 H       
  38 H38           -4.9755     5.1175    -2.0791 H       
  39 H39           -2.6843     4.2156    -2.0948 H       
  40 H40            4.3625    -4.5093    -0.9519 H       
  41 H41            4.3791    -4.5182     0.8279 H       
  42 H42            3.5872    -6.4441    -2.1969 H       
  43 H43            3.2778    -8.8869    -2.2063 H       
  44 H44            3.1437   -10.1191    -0.0787 H       
  45 H45            3.3198    -8.9086     2.0583 H       
  46 H46            3.6375    -6.4668     2.0676 H       
@<TRIPOS>BOND
   1    1    2 1
   2    1    9 2
   3    1   10 1
   4    2    3 ar
   5    2    8 ar
   6    3    4 ar
   7    3   30 1
   8    4    5 1
   9    4    6 ar
  10    5   11 2
  11    5   12 1
  12    6    7 ar
  13    6   31 1
  14    7    8 ar
  15    7   13 1
  16    8   32 1
  17   10   16 1
  18   12   23 1
  19   13   14 2
  20   13   15 2
  21   16   17 1
  22   16   33 1
  23   16   34 1
  24   17   18 ar
  25   17   22 ar
  26   18   19 ar
  27   18   35 1
  28   19   20 ar
  29   19   36 1
  30   20   21 ar
  31   20   37 1
  32   21   22 ar
  33   21   38 1
  34   22   39 1
  35   23   24 1
  36   23   40 1
  37   23   41 1
  38   24   25 ar
  39   24   29 ar
  40   25   26 ar
  41   25   42 1
  42   26   27 ar
  43   26   43 1
  44   27   28 ar
  45   27   44 1
  46   28   29 ar
  47   28   45 1
  48   29   46 1

#	End of record

