#	Name: ASD03080100
#	Creating user name:	WinNT
#	Creation time:	15. 06. 2019 20:26

#	Modifying user name:	WinNT
#	Modification time:	15. 06. 2019 20:26

#	Program:	/corina/corina34_cracker 3.40 0067  02.08.2006

@<TRIPOS>MOLECULE
ASD03080100
  29   31    0    0    0
SMALL
NO_CHARGES


@<TRIPOS>ATOM
   1 N1             0.0175    -1.1399    -0.0042 N.1     
   2 C2             0.0021    -0.0041     0.0020 C.1     
   3 C3            -0.0173     1.4278     0.0099 C.ar    
   4 C4             1.1809     2.1448     0.0023 C.ar    
   5 C5             1.1590     3.5248     0.0100 C.ar    
   6 C6            -0.0461     4.2014     0.0256 C.ar    
   7 C7            -1.2443     3.4971     0.0333 C.ar    
   8 C8            -1.2338     2.1115     0.0194 C.ar    
   9 N9            -2.4632     4.1883     0.0491 N.pl3   
  10 C10           -2.6184     5.5353    -0.0374 C.2     
  11 C11           -3.9412     5.8039     0.0128 C.2     
  12 C12           -4.6274     4.5795     0.1348 C.2     
  13 N13           -3.7355     3.6113     0.1509 N.2     
  14 C14           -6.0990     4.4104     0.2237 C.ar    
  15 C15           -6.6613     3.1368     0.3426 C.ar    
  16 C16           -8.0396     3.0324     0.4220 C.ar    
  17 C17           -8.8084     4.1809     0.3814 C.ar    
  18 N18           -8.2488     5.3702     0.2685 N.ar    
  19 C19           -6.9421     5.5194     0.1956 C.ar    
  20 H20            2.1245     1.6197    -0.0092 H       
  21 H21            2.0866     4.0778     0.0041 H       
  22 H22           -0.0568     5.2814     0.0323 H       
  23 H23           -2.1639     1.5626     0.0252 H       
  24 H24           -1.8250     6.2622    -0.1295 H       
  25 H25           -4.3929     6.7839    -0.0321 H       
  26 H26           -6.0367     2.2562     0.3715 H       
  27 H27           -8.5092     2.0642     0.5142 H       
  28 H28           -9.8838     4.1032     0.4427 H       
  29 H29           -6.5209     6.5097     0.1037 H       
@<TRIPOS>BOND
   1    1    2 3
   2    2    3 1
   3    3    4 ar
   4    3    8 ar
   5    4    5 ar
   6    4   20 1
   7    5    6 ar
   8    5   21 1
   9    6    7 ar
  10    6   22 1
  11    7    8 ar
  12    7    9 1
  13    8   23 1
  14    9   10 1
  15    9   13 1
  16   10   11 2
  17   10   24 1
  18   11   12 1
  19   11   25 1
  20   12   13 2
  21   12   14 1
  22   14   15 ar
  23   14   19 ar
  24   15   16 ar
  25   15   26 1
  26   16   17 ar
  27   16   27 1
  28   17   18 ar
  29   17   28 1
  30   18   19 ar
  31   19   29 1

#	End of record

