#	Name: ASD06170183
#	Creating user name:	WinNT
#	Creation time:	15. 06. 2019 21:05

#	Modifying user name:	WinNT
#	Modification time:	15. 06. 2019 21:05

#	Program:	/corina/corina34_cracker 3.40 0067  02.08.2006

@<TRIPOS>MOLECULE
ASD06170183
  70   75    0    0    0
SMALL
NO_CHARGES


@<TRIPOS>ATOM
   1 C1            -0.0422     1.0294    -0.3687 C.2     
   2 C2             0.1913    -0.3660    -0.2649 C.2     
   3 C3             1.4851    -0.8497    -0.4321 C.2     
   4 C4             2.5210     0.0614    -0.6989 C.2     
   5 C5             2.2409     1.4084    -0.7900 C.2     
   6 N6             0.9776     1.8690    -0.6255 N.am    
   7 C7            -0.9191    -1.2889     0.0161 C.2     
   8 O8            -0.7562    -2.4891    -0.0978 O.2     
   9 N9            -2.1170    -0.8048     0.3997 N.am    
  10 C10            3.9116    -0.4243    -0.8816 C.ar    
  11 C11            4.5886    -1.0215     0.1795 C.ar    
  12 C12            5.8816    -1.4714     0.0041 C.ar    
  13 C13            6.5053    -1.3301    -1.2224 C.ar    
  14 C14            5.8380    -0.7375    -2.2791 C.ar    
  15 C15            4.5426    -0.2898    -2.1165 C.ar    
  16 C16            0.7284     3.2431    -0.7250 C.ar    
  17 C17            1.1372     4.0997     0.2888 C.ar    
  18 C18            0.8899     5.4547     0.1877 C.ar    
  19 C19            0.2355     5.9587    -0.9214 C.ar    
  20 C20           -0.1733     5.1084    -1.9324 C.ar    
  21 C21            0.0769     3.7532    -1.8404 C.ar    
  22 O22           -1.1706     1.4685    -0.2298 O.2     
  23 C23           -3.2071    -1.6708     0.5479 C.ar    
  24 C24           -4.4902    -1.2294     0.2512 C.ar    
  25 C25           -5.5657    -2.0852     0.3974 C.ar    
  26 C26           -5.3622    -3.3866     0.8410 C.ar    
  27 C27           -4.0809    -3.8261     1.1368 C.ar    
  28 C28           -3.0051    -2.9727     0.9859 C.ar    
  29 F29           -6.8142    -1.6568     0.1095 F       
  30 O30           -6.4201    -4.2288     0.9854 O.3     
  31 N31           -8.2559    -5.6029    -2.4428 N.ar    
  32 C32           -7.3263    -4.6795    -2.5167 C.ar    
  33 C33           -6.6862    -4.1922    -1.3842 C.ar    
  34 C34           -7.0282    -4.6852    -0.1372 C.ar    
  35 C35           -8.0303    -5.6792    -0.0698 C.ar    
  36 C36           -8.4308    -6.2267     1.1582 C.ar    
  37 C37           -9.4024    -7.1851     1.1858 C.ar    
  38 C38          -10.0040    -7.6276    -0.0009 C.ar    
  39 C39           -9.6328    -7.1119    -1.2091 C.ar    
  40 C40           -8.6360    -6.1241    -1.2701 C.ar    
  41 O41          -10.9692    -8.5827     0.0525 O.3     
  42 C42          -11.5451    -8.9930    -1.1893 C.3     
  43 O43           -9.7903    -7.7162     2.3759 O.3     
  44 C44           -9.1393    -7.2241     3.5490 C.3     
  45 H45            1.6897    -1.9075    -0.3577 H       
  46 H46            3.0395     2.1058    -0.9952 H       
  47 H47           -2.2239     0.1436     0.5731 H       
  48 H48            4.1027    -1.1320     1.1377 H       
  49 H49            6.4075    -1.9341     0.8261 H       
  50 H50            7.5172    -1.6835    -1.3553 H       
  51 H51            6.3297    -0.6294    -3.2346 H       
  52 H52            4.0207     0.1685    -2.9436 H       
  53 H53            1.6477     3.7066     1.1556 H       
  54 H54            1.2075     6.1213     0.9758 H       
  55 H55            0.0429     7.0186    -0.9980 H       
  56 H56           -0.6848     5.5050    -2.7970 H       
  57 H57           -0.2379     3.0903    -2.6328 H       
  58 H58           -4.6475    -0.2179    -0.0931 H       
  59 H59           -3.9234    -4.8374     1.4815 H       
  60 H60           -2.0069    -3.3173     1.2123 H       
  61 H61           -7.0514    -4.2875    -3.4847 H       
  62 H62           -5.9244    -3.4323    -1.4766 H       
  63 H63           -7.9723    -5.8919     2.0770 H       
  64 H64          -10.1044    -7.4622    -2.1154 H       
  65 H65          -10.7662    -9.3994    -1.8344 H       
  66 H66          -12.2997    -9.7576    -1.0047 H       
  67 H67          -12.0088    -8.1349    -1.6759 H       
  68 H68           -8.0687    -7.4158     3.4778 H       
  69 H69           -9.3113    -6.1514     3.6371 H       
  70 H70           -9.5414    -7.7298     4.4269 H       
@<TRIPOS>BOND
   1    1    2 1
   2    1    6 am
   3    1   22 2
   4    2    3 2
   5    2    7 1
   6    3    4 1
   7    3   45 1
   8    4    5 2
   9    4   10 1
  10    5    6 1
  11    5   46 1
  12    6   16 1
  13    7    8 2
  14    7    9 am
  15    9   23 1
  16    9   47 1
  17   10   11 ar
  18   10   15 ar
  19   11   12 ar
  20   11   48 1
  21   12   13 ar
  22   12   49 1
  23   13   14 ar
  24   13   50 1
  25   14   15 ar
  26   14   51 1
  27   15   52 1
  28   16   17 ar
  29   16   21 ar
  30   17   18 ar
  31   17   53 1
  32   18   19 ar
  33   18   54 1
  34   19   20 ar
  35   19   55 1
  36   20   21 ar
  37   20   56 1
  38   21   57 1
  39   23   24 ar
  40   23   28 ar
  41   24   25 ar
  42   24   58 1
  43   25   26 ar
  44   25   29 1
  45   26   27 ar
  46   26   30 1
  47   27   28 ar
  48   27   59 1
  49   28   60 1
  50   30   34 1
  51   31   32 ar
  52   31   40 ar
  53   32   33 ar
  54   32   61 1
  55   33   34 ar
  56   33   62 1
  57   34   35 ar
  58   35   36 ar
  59   35   40 ar
  60   36   37 ar
  61   36   63 1
  62   37   38 ar
  63   37   43 1
  64   38   39 ar
  65   38   41 1
  66   39   40 ar
  67   39   64 1
  68   41   42 1
  69   42   65 1
  70   42   66 1
  71   42   67 1
  72   43   44 1
  73   44   68 1
  74   44   69 1
  75   44   70 1

#	End of record

