#	Name: ASD01914700
#	Creating user name:	WinNT
#	Creation time:	15. 06. 2019 20:04

#	Modifying user name:	WinNT
#	Modification time:	15. 06. 2019 20:04

#	Program:	/corina/corina34_cracker 3.40 0067  02.08.2006

@<TRIPOS>MOLECULE
ASD01914700
  42   45    0    0    0
SMALL
NO_CHARGES


@<TRIPOS>ATOM
   1 C1            -0.0169     1.3934     0.0097 C.ar    
   2 C2             0.0021    -0.0041     0.0020 C.ar    
   3 C3             1.2248    -0.6795    -0.0133 C.ar    
   4 C4             2.4049     0.0371    -0.0207 C.ar    
   5 C5             2.3777     1.4215    -0.0126 C.ar    
   6 C6             1.1696     2.0962     0.0021 C.ar    
   7 C7            -1.2262    -0.7402     0.0103 C.1     
   8 C8            -2.2332    -1.3437     0.0170 C.1     
   9 C9            -3.4615    -2.0798     0.0253 C.ar    
  10 C10           -3.4528    -3.4768     0.0177 C.ar    
  11 N11           -4.5828    -4.1529     0.0253 N.ar    
  12 C12           -5.7559    -3.5497     0.0406 C.ar    
  13 C13           -5.8501    -2.1693     0.0495 C.ar    
  14 C14           -4.6932    -1.4113     0.0470 C.ar    
  15 C15           -7.1995    -1.4985     0.0665 C.3     
  16 C16           -7.7818    -1.4901     1.4932 C.3     
  17 O17           -9.0122    -2.2618     1.3765 O.3     
  18 C18           -9.1634    -2.6717     0.1122 C.2     
  19 N19           -8.1759    -2.2822    -0.7056 N.am    
  20 O20          -10.1095    -3.3369    -0.2605 O.2     
  21 C21           -8.0821    -0.0803     1.9329 C.ar    
  22 C22           -7.2535     0.5526     2.8433 C.ar    
  23 C23           -7.5304     1.8480     3.2466 C.ar    
  24 C24           -8.6339     2.5089     2.7409 C.ar    
  25 C25           -9.4619     1.8779     1.8318 C.ar    
  26 C26           -9.1835     0.5847     1.4223 C.ar    
  27 Cl27           3.9261    -0.7993    -0.0397 Cl      
  28 F28           -6.1753    -0.0934     3.3385 F       
  29 F29           -9.9928    -0.0316     0.5333 F       
  30 H30           -0.9588     1.9217     0.0170 H       
  31 H31            1.2470    -1.7592    -0.0189 H       
  32 H32            3.3036     1.9773    -0.0180 H       
  33 H33            1.1559     3.1761     0.0088 H       
  34 H34           -2.5118    -4.0065     0.0051 H       
  35 H35           -6.6580    -4.1435     0.0460 H       
  36 H36           -4.7378    -0.3322     0.0537 H       
  37 H37           -7.1262    -0.4832    -0.3231 H       
  38 H38           -7.0942    -1.9703     2.1894 H       
  39 H39           -8.1147    -2.4844    -1.6524 H       
  40 H40           -6.8841     2.3420     3.9570 H       
  41 H41           -8.8495     3.5189     3.0566 H       
  42 H42          -10.3239     2.3953     1.4372 H       
@<TRIPOS>BOND
   1    1    2 ar
   2    1    6 ar
   3    1   30 1
   4    2    3 ar
   5    2    7 1
   6    3    4 ar
   7    3   31 1
   8    4    5 ar
   9    4   27 1
  10    5    6 ar
  11    5   32 1
  12    6   33 1
  13    7    8 3
  14    8    9 1
  15    9   10 ar
  16    9   14 ar
  17   10   11 ar
  18   10   34 1
  19   11   12 ar
  20   12   13 ar
  21   12   35 1
  22   13   14 ar
  23   13   15 1
  24   14   36 1
  25   15   16 1
  26   15   19 1
  27   15   37 1
  28   16   17 1
  29   16   21 1
  30   16   38 1
  31   17   18 1
  32   18   19 am
  33   18   20 2
  34   19   39 1
  35   21   22 ar
  36   21   26 ar
  37   22   23 ar
  38   22   28 1
  39   23   24 ar
  40   23   40 1
  41   24   25 ar
  42   24   41 1
  43   25   26 ar
  44   25   42 1
  45   26   29 1

#	End of record

