#	Name: ASD03091418
#	Creating user name:	WinNT
#	Creation time:	15. 06. 2019 20:30

#	Modifying user name:	WinNT
#	Modification time:	15. 06. 2019 20:30

#	Program:	/corina/corina34_cracker 3.40 0067  02.08.2006

@<TRIPOS>MOLECULE
ASD03091418
  32   34    0    0    0
SMALL
NO_CHARGES


@<TRIPOS>ATOM
   1 C1             0.0338     1.6904    -0.0445 C.3     
   2 C2            -0.0005     0.1621    -0.1096 C.3     
   3 N3             0.6567    -0.3948     1.0797 N.3     
   4 C4            -0.0446     0.0016     2.3075 C.3     
   5 C5            -0.0122     1.5250     2.4466 C.3     
   6 C6             1.4440     1.9964     2.5211 C.3     
   7 N7             2.1053     1.6897     1.2454 N.am    
   8 C8             1.4908     2.1634    -0.0022 C.3     
   9 C9            -0.6833     2.1598     1.2249 C.3     
  10 C10            3.2546     0.9861     1.2201 C.2     
  11 O11            3.8151     0.6987     2.2613 O.2     
  12 O12            3.2470     0.6953    -1.2722 O.3     
  13 C13            3.8297     0.5669    -0.0623 C.2     
  14 C14            5.0489    -0.0213    -0.2408 C.2     
  15 C15            5.1892    -0.2490    -1.6187 C.2     
  16 C16            4.0637     0.2045    -2.2133 C.2     
  17 H17           -0.4593     2.1046    -0.9239 H       
  18 H18           -1.0360    -0.1768    -0.1445 H       
  19 H19            0.5221    -0.1752    -1.0047 H       
  20 H20            0.7321    -1.3988     1.0145 H       
  21 H21           -1.0797    -0.3367     2.2598 H       
  22 H22            0.4461    -0.4521     3.1686 H       
  23 H23           -0.5386     1.8202     3.3543 H       
  24 H24            1.4716     3.0716     2.6978 H       
  25 H25            1.9552     1.4773     3.3318 H       
  26 H26            2.0327     1.7543    -0.8549 H       
  27 H27            1.5225     3.2525    -0.0347 H       
  28 H28           -0.6207     3.2456     1.2981 H       
  29 H29           -1.7295     1.8565     1.1854 H       
  30 H30            5.7665    -0.2640     0.5290 H       
  31 H31            6.0374    -0.7013    -2.1111 H       
  32 H32            3.8567     0.1755    -3.2729 H       
@<TRIPOS>BOND
   1    1    2 1
   2    1    8 1
   3    1    9 1
   4    1   17 1
   5    2    3 1
   6    2   18 1
   7    2   19 1
   8    3    4 1
   9    3   20 1
  10    4    5 1
  11    4   21 1
  12    4   22 1
  13    5    6 1
  14    5    9 1
  15    5   23 1
  16    6    7 1
  17    6   24 1
  18    6   25 1
  19    7    8 1
  20    7   10 am
  21    8   26 1
  22    8   27 1
  23    9   28 1
  24    9   29 1
  25   10   11 2
  26   10   13 1
  27   12   13 1
  28   12   16 1
  29   13   14 2
  30   14   15 1
  31   14   30 1
  32   15   16 2
  33   15   31 1
  34   16   32 1

#	End of record

