#	Name: ASD02038062
#	Creating user name:	WinNT
#	Creation time:	15. 06. 2019 20:16

#	Modifying user name:	WinNT
#	Modification time:	15. 06. 2019 20:16

#	Program:	/corina/corina34_cracker 3.40 0067  02.08.2006

@<TRIPOS>MOLECULE
ASD02038062
  61   64    0    0    0
SMALL
NO_CHARGES


@<TRIPOS>ATOM
   1 N1             0.7477     1.5052     1.2714 N.am    
   2 N2             1.5003     3.7135     1.3517 N.am    
   3 C3             1.6968     2.4036     1.6008 C.2     
   4 C4            -0.1338     7.4422     2.5902 C.3     
   5 O5            -1.1298     8.0564     1.7700 O.3     
   6 C6            -1.8652     9.0520     2.3330 C.ar    
   7 C7            -2.8489     9.6909     1.5925 C.ar    
   8 C8            -1.6352     9.4243     3.6493 C.ar    
   9 C9            -2.3823    10.4347     4.2219 C.ar    
  10 C10           -3.3635    11.0782     3.4797 C.ar    
  11 C11           -3.5961    10.7021     2.1637 C.ar    
  12 O12            2.7304     2.0324     2.1226 O.2     
  13 N13           -4.1224    12.1034     4.0605 N.am    
  14 C14            1.0132     0.1354     1.3792 C.ar    
  15 C15           -3.5676    12.9113     4.9856 C.2     
  16 N16           -4.3263    13.8218     5.6273 N.am    
  17 O17           -2.3825    12.8187     5.2414 O.2     
  18 C18           -3.7232    14.7000     6.6329 C.3     
  19 C19            2.2980    -0.3437     1.1599 C.ar    
  20 C20            2.4716     4.7164     1.8094 C.3     
  21 C21            1.7329     5.7816     2.6258 C.3     
  22 C22            0.5850     6.3535     1.7907 C.3     
  23 C23           -0.4035     5.2369     1.4468 C.3     
  24 C24            0.3138     4.1651     0.6121 C.3     
  25 C25           -0.0064    -0.7469     1.7114 C.ar    
  26 C26            0.2590    -2.0982     1.8176 C.ar    
  27 C27            1.5383    -2.5727     1.5934 C.ar    
  28 C28            2.5569    -1.6960     1.2676 C.ar    
  29 C29            1.8244    -4.0477     1.7101 C.3     
  30 C30            2.3575    -4.7643     0.4679 C.3     
  31 C31            3.2877    -4.4904     1.6513 C.3     
  32 H32           -0.1208     1.8081     0.9634 H       
  33 H33            0.5876     8.1940     2.9102 H       
  34 H34           -0.6075     6.9974     3.4653 H       
  35 H35           -3.0302     9.3977     0.5690 H       
  36 H36           -0.8720     8.9237     4.2265 H       
  37 H37           -2.2037    10.7241     5.2470 H       
  38 H38           -4.3592    11.2023     1.5858 H       
  39 H39           -5.0470    12.2315     3.7965 H       
  40 H40           -5.2717    13.8957     5.4232 H       
  41 H41           -3.3008    14.0962     7.4361 H       
  42 H42           -2.9342    15.2933     6.1709 H       
  43 H43           -4.4860    15.3638     7.0399 H       
  44 H44            3.0939     0.3405     0.9051 H       
  45 H45            3.2262     4.2366     2.4326 H       
  46 H46            2.9490     5.1826     0.9475 H       
  47 H47            1.3327     5.3311     3.5341 H       
  48 H48            2.4243     6.5817     2.8901 H       
  49 H49            0.9834     6.7819     0.8710 H       
  50 H50           -0.7836     4.7916     2.3662 H       
  51 H51           -1.2327     5.6494     0.8719 H       
  52 H52            0.6135     4.5885    -0.3466 H       
  53 H53           -0.3560     3.3211     0.4478 H       
  54 H54           -1.0057    -0.3769     1.8870 H       
  55 H55           -0.5335    -2.7848     2.0762 H       
  56 H56            3.5550    -2.0698     1.0928 H       
  57 H57            1.1553    -4.6060     2.3649 H       
  58 H58            2.0395    -5.7942     0.3056 H       
  59 H59            2.5014    -4.1689    -0.4337 H       
  60 H60            4.0436    -3.7147     1.5282 H       
  61 H61            3.5817    -5.3400     2.2676 H       
@<TRIPOS>BOND
   1    1   14 1
   2    1    3 am
   3    1   32 1
   4    2    3 am
   5    2   20 1
   6    2   24 1
   7    3   12 2
   8    4    5 1
   9    4   22 1
  10    4   33 1
  11    4   34 1
  12    5    6 1
  13    6    7 ar
  14    6    8 ar
  15    7   11 ar
  16    7   35 1
  17    8    9 ar
  18    8   36 1
  19    9   10 ar
  20    9   37 1
  21   10   11 ar
  22   10   13 1
  23   11   38 1
  24   13   15 am
  25   13   39 1
  26   14   25 ar
  27   14   19 ar
  28   15   16 am
  29   15   17 2
  30   16   18 1
  31   16   40 1
  32   18   41 1
  33   18   42 1
  34   18   43 1
  35   19   28 ar
  36   19   44 1
  37   20   21 1
  38   20   45 1
  39   20   46 1
  40   21   22 1
  41   21   47 1
  42   21   48 1
  43   22   23 1
  44   22   49 1
  45   23   24 1
  46   23   50 1
  47   23   51 1
  48   24   52 1
  49   24   53 1
  50   25   26 ar
  51   25   54 1
  52   26   27 ar
  53   26   55 1
  54   27   28 ar
  55   27   29 1
  56   28   56 1
  57   29   30 1
  58   29   31 1
  59   29   57 1
  60   30   31 1
  61   30   58 1
  62   30   59 1
  63   31   60 1
  64   31   61 1

#	End of record

