#	Name: ASD08070328
#	Creating user name:	WinNT
#	Creation time:	15. 06. 2019 21:14

#	Modifying user name:	WinNT
#	Modification time:	15. 06. 2019 21:14

#	Program:	/corina/corina34_cracker 3.40 0067  02.08.2006

@<TRIPOS>MOLECULE
ASD08070328
  26   25    0    0    0
SMALL
NO_CHARGES


@<TRIPOS>ATOM
   1 C1            -0.0161     1.3768     0.0148 C.ar    
   2 C2            -0.0223     0.0105     0.2180 C.ar    
   3 C3             1.1379    -0.6365     0.6169 C.ar    
   4 C4             2.3042     0.0883     0.8117 C.ar    
   5 C5             2.3104     1.4545     0.6085 C.ar    
   6 C6             1.1503     2.1016     0.2096 C.ar    
   7 O7             1.1316    -1.9815     0.8173 O.3     
   8 C8             2.3618    -2.5820     1.2274 C.3     
   9 O9             1.1565     3.4465     0.0091 O.3     
  10 C10            2.4170     4.1119     0.1116 C.3     
  11 C11            2.3827     5.3809    -0.7006 C.2     
  12 C12            2.6965     4.4518     1.5769 C.3     
  13 O13            1.3459     5.7340    -1.2362 O.co2   
  14 O14            3.3918     6.0543    -0.8222 O.co2   
  15 H15           -0.9183     1.8800    -0.3001 H       
  16 H16           -0.9306    -0.5538     0.0666 H       
  17 H17            3.2075    -0.4155     1.1226 H       
  18 H18            3.2186     2.0189     0.7602 H       
  19 H19            2.2186    -3.6554     1.3515 H       
  20 H20            3.1242    -2.4024     0.4694 H       
  21 H21            2.6810    -2.1462     2.1742 H       
  22 H22            3.2040     3.4596    -0.2666 H       
  23 H23            2.7213     3.5340     2.1644 H       
  24 H24            3.6580     4.9593     1.6552 H       
  25 H25            1.9095     5.1041     1.9552 H       
  26 Na26           8.6580    11.0543     7.1742 Du      
@<TRIPOS>BOND
   1    1    2 ar
   2    1    6 ar
   3    1   15 1
   4    2    3 ar
   5    2   16 1
   6    3    4 ar
   7    3    7 1
   8    4    5 ar
   9    4   17 1
  10    5    6 ar
  11    5   18 1
  12    6    9 1
  13    7    8 1
  14    8   19 1
  15    8   20 1
  16    8   21 1
  17    9   10 1
  18   10   11 1
  19   10   12 1
  20   10   22 1
  21   11   13 ar
  22   11   14 ar
  23   12   23 1
  24   12   24 1
  25   12   25 1

#	End of record

