#	Name: ASD01410918
#	Creating user name:	WinNT
#	Creation time:	15. 06. 2019 19:18

#	Modifying user name:	WinNT
#	Modification time:	15. 06. 2019 19:18

#	Program:	/corina/corina34_cracker 3.40 0067  02.08.2006

@<TRIPOS>MOLECULE
ASD01410918
  89   93    0    0    0
SMALL
NO_CHARGES


@<TRIPOS>ATOM
   1 C1             0.2027     1.2043     0.1858 C.ar    
   2 C2            -0.7579    -0.9352     0.7290 C.ar    
   3 C3            -1.8553    -0.6495    -0.0697 C.ar    
   4 C4            -1.9292     0.5823    -0.7389 C.ar    
   5 C5            -0.8867     1.5047    -0.6086 C.ar    
   6 O6             1.2144     2.1038     0.3174 O.3     
   7 C7             2.3263     1.9269    -0.4395 C.ar    
   8 N8            -2.8869    -1.5782    -0.1984 N.am    
   9 C9            -3.7398    -1.7841     0.8246 C.2     
  10 C10           -4.8183    -2.8302     0.7076 C.3     
  11 O11           -3.6394    -1.1275     1.8393 O.2     
  12 C12           -5.4023    -3.1176     2.0923 C.3     
  13 C13           -7.0204    -3.3821    -0.3357 C.3     
  14 C14           -7.6044    -3.6696     1.0489 C.3     
  15 C15           -6.4972    -4.1797     1.9735 C.3     
  16 C16           -8.6993    -4.7316     0.9302 C.3     
  17 N17            2.3537     0.9665    -1.3491 N.ar    
  18 C18           -3.0440    -2.3304    -1.4457 C.3     
  19 C19           -2.1930    -1.6848    -2.5412 C.3     
  20 C20            3.4229     2.7594    -0.2561 C.ar    
  21 C21            4.5510     2.5687    -1.0352 C.ar    
  22 C22            4.5417     1.5469    -1.9745 C.ar    
  23 C23            3.4142     0.7606    -2.1064 C.ar    
  24 C24           -5.9255    -2.3201    -0.2170 C.3     
  25 C25            5.7470     1.3022    -2.8454 C.3     
  26 C26            0.2655    -0.0143     0.8569 C.ar    
  27 F27            1.3318    -0.2982     1.6364 F       
  28 N28            6.6451     0.3478    -2.1816 N.3     
  29 C29            7.7070    -0.0969    -3.0932 C.3     
  30 C30           -2.5885    -3.7751    -1.2309 C.3     
  31 C31           -0.2669    -3.1432    -1.9043 C.3     
  32 C32           -1.1179    -3.7888    -0.8088 C.3     
  33 C33            8.7030    -0.9726    -2.3296 C.3     
  34 C34            7.9680    -2.1814    -1.7438 C.3     
  35 C35            6.8367    -1.6903    -0.8364 C.3     
  36 C36            5.8947    -0.7939    -1.6433 C.3     
  37 F37            6.1257    -2.7884    -0.3405 F       
  38 F38            7.3756    -0.9619     0.2295 F       
  39 C39           -0.7224    -1.6985    -2.1191 C.3     
  40 O40            1.1066    -3.1560    -1.5101 O.3     
  41 C41            2.0242    -3.2343    -2.6028 C.3     
  42 C42           -3.0907     0.8938    -1.5889 C.2     
  43 O43           -4.0486     0.1462    -1.6068 O.2     
  44 O44           -3.0913     2.0081    -2.3471 O.3     
  45 C45            3.3848     3.8560     0.7769 C.3     
  46 F46            4.6005     4.5483     0.7672 F       
  47 F47            2.3422     4.7404     0.4800 F       
  48 F48            3.1763     3.2974     2.0425 F       
  49 H49           -0.6987    -1.8819     1.2452 H       
  50 H50           -0.9333     2.4506    -1.1277 H       
  51 H51           -4.3935    -3.7454     0.2953 H       
  52 H52           -4.6135    -3.4810     2.7510 H       
  53 H53           -5.8271    -2.2024     2.5046 H       
  54 H54           -6.5956    -4.2973    -0.7480 H       
  55 H55           -7.8091    -3.0187    -0.9944 H       
  56 H56           -8.0292    -2.7543     1.4613 H       
  57 H57           -6.0725    -5.0949     1.5612 H       
  58 H58           -6.9133    -4.3844     2.9600 H       
  59 H59           -8.2745    -5.6468     0.5178 H       
  60 H60           -9.1154    -4.9364     1.9166 H       
  61 H61           -9.4881    -4.3682     0.2715 H       
  62 H62           -4.0917    -2.3207    -1.7464 H       
  63 H63           -2.3099    -2.2445    -3.4692 H       
  64 H64           -2.5175    -0.6556    -2.6942 H       
  65 H65            5.4184     3.2007    -0.9151 H       
  66 H66            3.4019    -0.0358    -2.8358 H       
  67 H67           -6.3502    -1.4048     0.1954 H       
  68 H68           -5.5094    -2.1153    -1.2034 H       
  69 H69            5.4260     0.8932    -3.8034 H       
  70 H70            6.2734     2.2424    -3.0098 H       
  71 H71            7.2683    -0.6722    -3.9085 H       
  72 H72            8.2244     0.7721    -3.4995 H       
  73 H73           -3.1947    -4.2350    -0.4505 H       
  74 H74           -2.7053    -4.3347    -2.1589 H       
  75 H75           -0.3837    -3.7029    -2.8323 H       
  76 H76           -1.0010    -3.2291     0.1192 H       
  77 H77           -0.7933    -4.8180    -0.6558 H       
  78 H78            9.4825    -1.3153    -3.0100 H       
  79 H79            9.1523    -0.3938    -1.5226 H       
  80 H80            7.5516    -2.7816    -2.5528 H       
  81 H81            8.6651    -2.7851    -1.1627 H       
  82 H82            5.0959    -0.4310    -0.9965 H       
  83 H83            5.4645    -1.3659    -2.4654 H       
  84 H84           -0.1162    -1.2386    -2.8995 H       
  85 H85           -0.6056    -1.1389    -1.1911 H       
  86 H86            1.8852    -2.3732    -3.2564 H       
  87 H87            3.0449    -3.2392    -2.2204 H       
  88 H88            1.8424    -4.1503    -3.1649 H       
  89 H89           -3.8759     2.1703    -2.8885 H       
@<TRIPOS>BOND
   1    1   26 ar
   2    1    6 1
   3    1    5 ar
   4    2    3 ar
   5    2   26 ar
   6    2   49 1
   7    3    4 ar
   8    3    8 1
   9    4    5 ar
  10    4   42 1
  11    5   50 1
  12    6    7 1
  13    7   20 ar
  14    7   17 ar
  15    8    9 am
  16    8   18 1
  17    9   11 2
  18    9   10 1
  19   10   12 1
  20   10   24 1
  21   10   51 1
  22   12   15 1
  23   12   52 1
  24   12   53 1
  25   13   14 1
  26   13   24 1
  27   13   54 1
  28   13   55 1
  29   14   15 1
  30   14   16 1
  31   14   56 1
  32   15   57 1
  33   15   58 1
  34   16   59 1
  35   16   60 1
  36   16   61 1
  37   17   23 ar
  38   18   19 1
  39   18   30 1
  40   18   62 1
  41   19   39 1
  42   19   63 1
  43   19   64 1
  44   20   21 ar
  45   20   45 1
  46   21   22 ar
  47   21   65 1
  48   22   23 ar
  49   22   25 1
  50   23   66 1
  51   24   67 1
  52   24   68 1
  53   25   28 1
  54   25   69 1
  55   25   70 1
  56   26   27 1
  57   28   29 1
  58   28   36 1
  59   29   33 1
  60   29   71 1
  61   29   72 1
  62   30   32 1
  63   30   73 1
  64   30   74 1
  65   31   32 1
  66   31   40 1
  67   31   39 1
  68   31   75 1
  69   32   76 1
  70   32   77 1
  71   33   34 1
  72   33   78 1
  73   33   79 1
  74   34   35 1
  75   34   80 1
  76   34   81 1
  77   35   36 1
  78   35   37 1
  79   35   38 1
  80   36   82 1
  81   36   83 1
  82   39   84 1
  83   39   85 1
  84   40   41 1
  85   41   86 1
  86   41   87 1
  87   41   88 1
  88   42   43 2
  89   42   44 1
  90   44   89 1
  91   45   46 1
  92   45   47 1
  93   45   48 1

#	End of record

