#	Name: ASD02690079
#	Creating user name:	WinNT
#	Creation time:	15. 06. 2019 20:26

#	Modifying user name:	WinNT
#	Modification time:	15. 06. 2019 20:26

#	Program:	/corina/corina34_cracker 3.40 0067  02.08.2006

@<TRIPOS>MOLECULE
ASD02690079
  55   58    0    0    0
SMALL
NO_CHARGES


@<TRIPOS>ATOM
   1 C1            -0.0038     1.4595    -0.1175 C.3     
   2 N2             0.0021    -0.0041     0.0020 N.3     
   3 C3            -1.3562    -0.5483    -0.1275 C.3     
   4 C4            -1.9363    -0.1656    -1.4876 C.3     
   5 C5             1.4361     1.9779    -0.1239 C.3     
   6 C6             2.1311     1.5558     1.1736 C.3     
   7 C7             2.0808     0.0305     1.2974 C.3     
   8 C8            -3.2299    -0.8958    -1.7364 C.ar    
   9 C9             3.5672     2.0119     1.1470 C.2     
  10 C10            4.2910     2.2390     2.4089 C.ar    
  11 C11            5.6222     2.6617     2.3763 C.ar    
  12 C12            0.6223    -0.4314     1.2626 C.3     
  13 C13           -1.3107    -2.0781    -0.0346 C.3     
  14 C14           -2.7435    -2.5968     0.0693 C.3     
  15 C15           -3.5987    -2.0137    -1.0252 C.ar    
  16 C16           -4.8036    -2.6451    -1.3097 C.ar    
  17 C17           -5.6370    -2.1608    -2.2969 C.ar    
  18 C18           -5.2744    -1.0361    -3.0122 C.ar    
  19 O19            4.1266     2.1918     0.0863 O.2     
  20 C20           -4.0731    -0.4030    -2.7336 C.ar    
  21 O21           -0.6888    -2.6131    -1.2046 O.3     
  22 N22           -3.7041     0.7345    -3.4553 N.pl3   
  23 N23            3.6694     2.0449     3.5688 N.ar    
  24 C24            4.2766     2.2358     4.7166 C.ar    
  25 C25            5.6063     2.6526     4.7608 C.ar    
  26 C26            6.2909     2.8719     3.5684 C.ar    
  27 O27            6.2247     2.8475     5.9526 O.3     
  28 C28            5.4530     2.6068     7.1310 C.3     
  29 H29           -0.4971     1.7461    -1.0462 H       
  30 H30           -0.5413     1.8907     0.7271 H       
  31 H31           -1.9884    -0.1503     0.6664 H       
  32 H32           -2.1198     0.9086    -1.5107 H       
  33 H33           -1.2215    -0.4243    -2.2688 H       
  34 H34            1.9703     1.5579    -0.9761 H       
  35 H35            1.4310     3.0654    -0.1969 H       
  36 H36            1.6210     2.0083     2.0239 H       
  37 H37            2.6252    -0.4201     0.4675 H       
  38 H38            2.5364    -0.2733     2.2399 H       
  39 H39            6.1225     2.8218     1.4327 H       
  40 H40            0.0818     0.0086     2.1007 H       
  41 H41            0.5836    -1.5183     1.3362 H       
  42 H42           -0.7475    -2.3756     0.8499 H       
  43 H43           -2.7396    -3.6833    -0.0180 H       
  44 H44           -3.1580    -2.3161     1.0376 H       
  45 H45           -5.0905    -3.5246    -0.7523 H       
  46 H46           -6.5705    -2.6602    -2.5103 H       
  47 H47           -5.9240    -0.6515    -3.7846 H       
  48 H48           -0.6273    -3.5781    -1.2111 H       
  49 H49           -4.2878     1.0792    -4.1491 H       
  50 H50           -2.8641     1.1797    -3.2627 H       
  51 H51            3.7393     2.0684     5.6384 H       
  52 H52            7.3214     3.1950     3.5743 H       
  53 H53            6.0653     2.7996     8.0119 H       
  54 H54            4.5865     3.2680     7.1391 H       
  55 H55            5.1187     1.5694     7.1407 H       
@<TRIPOS>BOND
   1    1    2 1
   2    1    5 1
   3    1   29 1
   4    1   30 1
   5    2    3 1
   6    2   12 1
   7    3    4 1
   8    3   13 1
   9    3   31 1
  10    4    8 1
  11    4   32 1
  12    4   33 1
  13    5    6 1
  14    5   34 1
  15    5   35 1
  16    6    9 1
  17    6    7 1
  18    6   36 1
  19    7   12 1
  20    7   37 1
  21    7   38 1
  22    8   15 ar
  23    8   20 ar
  24    9   10 1
  25    9   19 2
  26   10   11 ar
  27   10   23 ar
  28   11   26 ar
  29   11   39 1
  30   12   40 1
  31   12   41 1
  32   13   14 1
  33   13   21 1
  34   13   42 1
  35   14   15 1
  36   14   43 1
  37   14   44 1
  38   15   16 ar
  39   16   17 ar
  40   16   45 1
  41   17   18 ar
  42   17   46 1
  43   18   20 ar
  44   18   47 1
  45   20   22 1
  46   21   48 1
  47   22   49 1
  48   22   50 1
  49   23   24 ar
  50   24   25 ar
  51   24   51 1
  52   25   26 ar
  53   25   27 1
  54   26   52 1
  55   27   28 1
  56   28   53 1
  57   28   54 1
  58   28   55 1

#	End of record

