#	Name: ASD07300662
#	Creating user name:	WinNT
#	Creation time:	15. 06. 2019 21:10

#	Modifying user name:	WinNT
#	Modification time:	15. 06. 2019 21:10

#	Program:	/corina/corina34_cracker 3.40 0067  02.08.2006

@<TRIPOS>MOLECULE
ASD07300662
  37   40    0    0    0
SMALL
NO_CHARGES


@<TRIPOS>ATOM
   1 C1            -0.0173     1.4134    -0.0095 C.2     
   2 C2             0.0021    -0.0041     0.0020 C.2     
   3 N3             1.1772     2.0892    -0.0167 N.pl3   
   4 N4             1.1573    -0.6381     0.0055 N.2     
   5 C5             2.3160     0.0297    -0.0016 C.2     
   6 C6             2.3489     1.3764    -0.0122 C.2     
   7 N7            -0.9924     2.3051    -0.0100 N.2     
   8 C8            -0.4649     3.5301    -0.0237 C.2     
   9 C9             0.8858     3.4179    -0.0271 C.2     
  10 N10           -1.1857    -0.7180     0.0100 N.pl3   
  11 C11           -1.1887    -2.1848    -0.1073 C.3     
  12 C12           -2.0511    -2.7585     1.0227 C.3     
  13 O13           -3.3292    -2.1181     1.0109 O.3     
  14 C14           -3.2807    -0.7102     1.2547 C.3     
  15 C15           -2.4809    -0.0321     0.1422 C.3     
  16 C16           -1.2406     4.8221    -0.0290 C.3     
  17 C17            3.6115    -0.7402     0.0028 C.3     
  18 C18            3.8738    -1.6749     1.1854 C.3     
  19 C19            3.5330    -2.2562    -0.1882 C.3     
  20 Br20           2.1311     4.8409    -0.0398 Br      
  21 H21            3.2968     1.8941    -0.0181 H       
  22 H22           -1.6062    -2.4752    -1.0714 H       
  23 H23           -0.1699    -2.5622    -0.0194 H       
  24 H24           -2.1797    -3.8306     0.8742 H       
  25 H25           -1.5627    -2.5789     1.9805 H       
  26 H26           -4.2939    -0.3088     1.2730 H       
  27 H27           -2.7968    -0.5232     2.2133 H       
  28 H28           -2.3174     1.0154     0.3953 H       
  29 H29           -3.0308    -0.1020    -0.7963 H       
  30 H30           -1.4202     5.1423     0.9974 H       
  31 H31           -0.6684     5.5873    -0.5534 H       
  32 H32           -2.1944     4.6713    -0.5346 H       
  33 H33            4.4678    -0.2219    -0.4287 H       
  34 H34            4.9028    -1.7718     1.5317 H       
  35 H35            3.1093    -1.7329     1.9602 H       
  36 H36            2.5443    -2.6967    -0.3171 H       
  37 H37            4.3377    -2.7355    -0.7456 H       
@<TRIPOS>BOND
   1    1    2 1
   2    1    3 1
   3    1    7 2
   4    2    4 2
   5    2   10 1
   6    3    6 1
   7    3    9 1
   8    4    5 1
   9    5    6 2
  10    5   17 1
  11    6   21 1
  12    7    8 1
  13    8    9 2
  14    8   16 1
  15    9   20 1
  16   10   11 1
  17   10   15 1
  18   11   12 1
  19   11   22 1
  20   11   23 1
  21   12   13 1
  22   12   24 1
  23   12   25 1
  24   13   14 1
  25   14   15 1
  26   14   26 1
  27   14   27 1
  28   15   28 1
  29   15   29 1
  30   16   30 1
  31   16   31 1
  32   16   32 1
  33   17   18 1
  34   17   19 1
  35   17   33 1
  36   18   19 1
  37   18   34 1
  38   18   35 1
  39   19   36 1
  40   19   37 1

#	End of record

