#	Name: ASD01418027
#	Creating user name:	WinNT
#	Creation time:	15. 06. 2019 19:20

#	Modifying user name:	WinNT
#	Modification time:	15. 06. 2019 19:20

#	Program:	/corina/corina34_cracker 3.40 0067  02.08.2006

@<TRIPOS>MOLECULE
ASD01418027
  78   83    0    0    0
SMALL
NO_CHARGES


@<TRIPOS>ATOM
   1 C1            -0.0291     1.5326     0.0218 C.3     
   2 C2            -0.0247     0.0216     0.0362 C.2     
   3 N3             1.3356     2.0670     0.0056 N.pl3   
   4 C4             2.2894     1.8295     0.9708 C.2     
   5 C5             2.2119     0.8827     2.0980 C.ar    
   6 C6             1.4271    -0.2726     2.0747 C.ar    
   7 C7             0.6079    -0.6921     0.9527 C.2     
   8 C8             1.8824     2.8802    -0.9570 C.ar    
   9 C9             3.1634     3.2890    -0.4879 C.ar    
  10 C10            3.3818     2.6153     0.7179 C.2     
  11 C11            1.4344     3.3078    -2.1950 C.ar    
  12 C12            2.2972     4.0952    -2.9760 C.ar    
  13 C13            3.5019     4.5885    -2.4515 C.ar    
  14 C14            3.9515     4.1926    -1.2175 C.ar    
  15 C15            4.6066     2.7338     1.5879 C.3     
  16 C16            5.2839     1.3668     1.7040 C.3     
  17 C17            5.5810     3.7344     0.9633 C.3     
  18 C18            6.8245     3.8547     1.8467 C.3     
  19 C19            7.5018     2.4878     1.9628 C.3     
  20 C20            6.5273     1.4872     2.5874 C.3     
  21 C21            2.9732     1.1920     3.2359 C.ar    
  22 C22            2.9071     0.4047     4.3652 C.ar    
  23 C23            2.1011    -0.7354     4.3590 C.ar    
  24 C24            1.3913    -1.0756     3.2307 C.ar    
  25 C25           -0.7750    -0.6204    -1.0058 C.2     
  26 O26           -1.8775    -0.1200    -1.1304 O.2     
  27 N27           -0.5934    -1.6128    -1.8722 N.am    
  28 C28            1.2169     0.2941    -5.7638 C.3     
  29 N29            2.3095     1.2685    -6.0287 N.am    
  30 S30            1.8083     2.8079    -6.4690 S.o2    
  31 O31            2.3064     3.0417    -7.7792 O.2     
  32 O32            0.4336     2.9058    -6.1231 O.2     
  33 N33            2.6383     3.8414    -5.4456 N.am    
  34 C34            1.9500     4.2717    -4.3730 C.2     
  35 O35            0.9201     4.8767    -4.6004 O.2     
  36 C36            3.7249     0.9090    -5.9126 C.3     
  37 O37            1.4894    -0.4189    -4.5608 O.3     
  38 C38            0.4241    -1.2396    -4.0745 C.3     
  39 C39            0.7016    -1.6236    -2.6147 C.3     
  40 O40            2.0177    -1.5116     5.4710 O.3     
  41 C41            2.7807    -1.1012     6.6074 C.3     
  42 C42           -1.6123    -2.6433    -2.0868 C.3     
  43 H43           -0.5592     1.8798    -0.8651 H       
  44 H44           -0.5447     1.8967     0.9104 H       
  45 H45            0.4968    -1.7614     0.8491 H       
  46 H46            0.4495     3.0435    -2.5507 H       
  47 H47            4.0846     5.2909    -3.0289 H       
  48 H48            4.8837     4.5652    -0.8192 H       
  49 H49            4.3157     3.0805     2.5795 H       
  50 H50            4.5897     0.6540     2.1490 H       
  51 H51            5.5748     1.0201     0.7125 H       
  52 H52            5.8720     3.3877    -0.0283 H       
  53 H53            5.0985     4.7083     0.8806 H       
  54 H54            7.5187     4.5676     1.4017 H       
  55 H55            6.5335     4.2015     2.8382 H       
  56 H56            7.7927     2.1410     0.9712 H       
  57 H57            8.3876     2.5735     2.5921 H       
  58 H58            6.2364     1.8339     3.5790 H       
  59 H59            7.0099     0.5133     2.6701 H       
  60 H60            3.6192     2.0575     3.2263 H       
  61 H61            3.4737     0.6669     5.2465 H       
  62 H62            0.7953    -1.9763     3.2315 H       
  63 H63            0.2718     0.8277    -5.6627 H       
  64 H64            1.1485    -0.4086    -6.5942 H       
  65 H65            3.5543     4.1119    -5.6151 H       
  66 H66            3.8111    -0.1363    -5.6157 H       
  67 H67            4.2170     1.0554    -6.8741 H       
  68 H68            4.1997     1.5403    -5.1615 H       
  69 H69           -0.5148    -0.6891    -4.1334 H       
  70 H70            0.3550    -2.1426    -4.6810 H       
  71 H71            1.3866    -0.9023    -2.1690 H       
  72 H72            1.1399    -2.6207    -2.5741 H       
  73 H73            3.8385    -1.0775     6.3455 H       
  74 H74            2.4613    -0.1069     6.9197 H       
  75 H75            2.6243    -1.8062     7.4239 H       
  76 H76           -2.4713    -2.4440    -1.4460 H       
  77 H77           -1.9269    -2.6315    -3.1303 H       
  78 H78           -1.1968    -3.6212    -1.8436 H       
@<TRIPOS>BOND
   1    1    2 1
   2    1    3 1
   3    1   43 1
   4    1   44 1
   5    2   25 1
   6    2    7 2
   7    3    4 1
   8    3    8 1
   9    4    5 1
  10    4   10 2
  11    5    6 ar
  12    5   21 ar
  13    6    7 1
  14    6   24 ar
  15    7   45 1
  16    8    9 ar
  17    8   11 ar
  18    9   10 1
  19    9   14 ar
  20   10   15 1
  21   11   12 ar
  22   11   46 1
  23   12   13 ar
  24   12   34 1
  25   13   14 ar
  26   13   47 1
  27   14   48 1
  28   15   16 1
  29   15   17 1
  30   15   49 1
  31   16   20 1
  32   16   50 1
  33   16   51 1
  34   17   18 1
  35   17   52 1
  36   17   53 1
  37   18   19 1
  38   18   54 1
  39   18   55 1
  40   19   20 1
  41   19   56 1
  42   19   57 1
  43   20   58 1
  44   20   59 1
  45   21   22 ar
  46   21   60 1
  47   22   23 ar
  48   22   61 1
  49   23   24 ar
  50   23   40 1
  51   24   62 1
  52   25   26 2
  53   25   27 am
  54   27   42 1
  55   27   39 1
  56   28   29 1
  57   28   37 1
  58   28   63 1
  59   28   64 1
  60   29   30 am
  61   29   36 1
  62   30   31 2
  63   30   32 2
  64   30   33 am
  65   33   34 am
  66   33   65 1
  67   34   35 2
  68   36   66 1
  69   36   67 1
  70   36   68 1
  71   37   38 1
  72   38   39 1
  73   38   69 1
  74   38   70 1
  75   39   71 1
  76   39   72 1
  77   40   41 1
  78   41   73 1
  79   41   74 1
  80   41   75 1
  81   42   76 1
  82   42   77 1
  83   42   78 1

#	End of record

