#	Name: ASD01510004
#	Creating user name:	WinNT
#	Creation time:	15. 06. 2019 19:21

#	Modifying user name:	WinNT
#	Modification time:	15. 06. 2019 19:21

#	Program:	/corina/corina34_cracker 3.40 0067  02.08.2006

@<TRIPOS>MOLECULE
ASD01510004
  61   60    0    0    0
SMALL
NO_CHARGES


@<TRIPOS>ATOM
   1 N1            -0.0178     1.4648     0.0101 N.3     
   2 C2             0.0021    -0.0041     0.0020 C.3     
   3 C3             0.8260    -0.5095     1.1880 C.3     
   4 C4             0.8467    -2.0393     1.1796 C.3     
   5 N5             1.6378    -2.5246     2.3184 N.3     
   6 C6             1.6799    -3.9928     2.3426 C.3     
   7 C7             2.5107    -4.4595     3.5396 C.3     
   8 C8             2.5545    -5.9886     3.5648 C.3     
   9 N9             3.3500    -6.4355     4.7110 N.am    
  10 C10            3.5274    -7.7525     4.9358 C.2     
  11 O11            3.0284    -8.5677     4.1892 O.2     
  12 C12            4.3457    -8.2122     6.1148 C.3     
  13 N13            5.7567    -7.8928     5.8842 N.am    
  14 C14            6.7138    -8.7717     6.2419 C.2     
  15 O15            6.4069    -9.8271     6.7546 O.2     
  16 C16            8.1653    -8.4431     6.0047 C.3     
  17 C17            9.0372    -9.5998     6.4975 C.3     
  18 C18           10.5108    -9.2662     6.2566 C.3     
  19 C19           11.3827   -10.4228     6.7494 C.3     
  20 C20           12.8563   -10.0892     6.5086 C.3     
  21 C21           13.7282   -11.2459     7.0014 C.3     
  22 N22           15.1392   -10.9264     6.7708 N.pl3   
  23 C23           16.1155   -11.8230     7.1356 C.2     
  24 N24           15.7857   -12.9573     7.6867 N.2     
  25 N25           17.4397   -11.5232     6.9192 N.pl3   
  26 O26            3.8938    -7.5476     7.2964 O.3     
  27 H27            0.9191     1.8392     0.0032 H       
  28 H28           -0.5563     1.8234    -0.7642 H       
  29 H29           -1.0174    -0.3817     0.0806 H       
  30 H30            0.4494    -0.3563    -0.9275 H       
  31 H31            1.8454    -0.1318     1.1095 H       
  32 H32            0.3787    -0.1573     2.1176 H       
  33 H33           -0.1727    -2.4169     1.2582 H       
  34 H34            1.2940    -2.3915     0.2501 H       
  35 H35            2.5690    -2.1363     2.3034 H       
  36 H36            0.6662    -4.3839     2.4292 H       
  37 H37            2.1330    -4.3585     1.4211 H       
  38 H38            3.5244    -4.0683     3.4530 H       
  39 H39            2.0576    -4.0937     4.4611 H       
  40 H40            1.5408    -6.3798     3.6515 H       
  41 H41            3.0076    -6.3544     2.6434 H       
  42 H42            3.7491    -5.7835     5.3081 H       
  43 H43            4.2324    -9.2893     6.2379 H       
  44 H44            6.0021    -7.0487     5.4741 H       
  45 H45            8.3336    -8.2898     4.9387 H       
  46 H46            8.4257    -7.5347     6.5479 H       
  47 H47            8.8688    -9.7531     7.5634 H       
  48 H48            8.7768   -10.5081     5.9542 H       
  49 H49           10.6791    -9.1128     5.1907 H       
  50 H50           10.7712    -8.3578     6.7999 H       
  51 H51           11.2144   -10.5761     7.8154 H       
  52 H52           11.1223   -11.3312     6.2062 H       
  53 H53           13.0246    -9.9359     5.4426 H       
  54 H54           13.1167    -9.1808     7.0519 H       
  55 H55           13.5599   -11.3992     8.0674 H       
  56 H56           13.4678   -12.1542     6.4581 H       
  57 H57           15.3847   -10.0823     6.3607 H       
  58 H58           16.4746   -13.5898     7.9441 H       
  59 H59           17.6852   -10.6792     6.5091 H       
  60 H60           18.1285   -12.1558     7.1766 H       
  61 H61            3.9655    -6.5840     7.2576 H       
@<TRIPOS>BOND
   1    1    2 1
   2    1   27 1
   3    1   28 1
   4    2    3 1
   5    2   29 1
   6    2   30 1
   7    3    4 1
   8    3   31 1
   9    3   32 1
  10    4    5 1
  11    4   33 1
  12    4   34 1
  13    5    6 1
  14    5   35 1
  15    6    7 1
  16    6   36 1
  17    6   37 1
  18    7    8 1
  19    7   38 1
  20    7   39 1
  21    8    9 1
  22    8   40 1
  23    8   41 1
  24    9   10 am
  25    9   42 1
  26   10   11 2
  27   10   12 1
  28   12   13 1
  29   12   26 1
  30   12   43 1
  31   13   14 am
  32   13   44 1
  33   14   15 2
  34   14   16 1
  35   16   17 1
  36   16   45 1
  37   16   46 1
  38   17   18 1
  39   17   47 1
  40   17   48 1
  41   18   19 1
  42   18   49 1
  43   18   50 1
  44   19   20 1
  45   19   51 1
  46   19   52 1
  47   20   21 1
  48   20   53 1
  49   20   54 1
  50   21   22 1
  51   21   55 1
  52   21   56 1
  53   22   23 1
  54   22   57 1
  55   23   24 2
  56   23   25 1
  57   24   58 1
  58   25   59 1
  59   25   60 1
  60   26   61 1

#	End of record

