#	Name: ASD01840396
#	Creating user name:	WinNT
#	Creation time:	15. 06. 2019 19:37

#	Modifying user name:	WinNT
#	Modification time:	15. 06. 2019 19:37

#	Program:	/corina/corina34_cracker 3.40 0067  02.08.2006

@<TRIPOS>MOLECULE
ASD01840396
  53   56    0    0    0
SMALL
NO_CHARGES


@<TRIPOS>ATOM
   1 C1             0.2611     1.7552    -0.9980 C.ar    
   2 C2             0.3841     0.5320    -1.6195 C.ar    
   3 N3             1.4990    -0.1677    -1.4965 N.ar    
   4 N4             2.4999     0.2427    -0.8111 N.ar    
   5 C5             1.3546     2.2267    -0.2364 C.ar    
   6 C6             1.5104     3.4570     0.5171 C.2     
   7 C7             2.4928     1.4121    -0.1670 C.ar    
   8 S8             3.7250     2.1824     0.8223 S.3     
   9 C9             2.7118     3.5783     1.1344 C.2     
  10 C10           -0.9999     2.5697    -1.1313 C.3     
  11 C11           -0.7562    -0.0106    -2.4419 C.3     
  12 N12            0.5179     4.4243     0.5985 N.pl3   
  13 C13            3.1102     4.7236     1.9514 C.2     
  14 O14            2.3404     5.6527     2.1138 O.2     
  15 N15            4.3297     4.7507     2.5248 N.am    
  16 C16            4.7288     5.8982     3.3434 C.3     
  17 C17            5.8178     5.4952     4.3726 C.3     
  18 C18            6.5671     6.8214     4.6201 C.3     
  19 N19            6.3208     7.6857     3.4566 N.am    
  20 C20            5.4799     6.9526     2.4927 C.3     
  21 C21            6.7859     8.9406     3.2978 C.2     
  22 O22            7.5475     9.5025     4.2554 O.3     
  23 O23            6.5178     9.5650     2.2905 O.2     
  24 C24            8.0134    10.8569     4.0170 C.3     
  25 C25            8.8444    11.3156     5.1876 C.ar    
  26 C26           10.2089    11.0946     5.1953 C.ar    
  27 C27           10.9712    11.5153     6.2690 C.ar    
  28 C28           10.3689    12.1574     7.3348 C.ar    
  29 C29            9.0045    12.3792     7.3266 C.ar    
  30 C30            8.2429    11.9624     6.2509 C.ar    
  31 H31           -1.6441     2.3852    -0.2716 H       
  32 H32           -0.7456     3.6287    -1.1742 H       
  33 H33           -1.5220     2.2841    -2.0445 H       
  34 H34           -0.6493     0.3210    -3.4747 H       
  35 H35           -0.7433    -1.1000    -2.4068 H       
  36 H36           -1.7008     0.3547    -2.0389 H       
  37 H37           -0.4028     4.1923     0.4002 H       
  38 H38            0.7452     5.3322     0.8537 H       
  39 H39            4.9430     4.0104     2.3954 H       
  40 H40            3.8654     6.3397     3.8409 H       
  41 H41            5.3622     5.1318     5.2937 H       
  42 H42            6.4883     4.7462     3.9512 H       
  43 H43            6.1873     7.2987     5.5235 H       
  44 H44            7.6355     6.6304     4.7205 H       
  45 H45            6.1013     6.4626     1.7431 H       
  46 H46            4.7714     7.6297     2.0157 H       
  47 H47            8.6188    10.8787     3.1109 H       
  48 H48            7.1566    11.5201     3.8976 H       
  49 H49           10.6794    10.5929     4.3626 H       
  50 H50           12.0371    11.3420     6.2754 H       
  51 H51           10.9643    12.4855     8.1740 H       
  52 H52            8.5339    12.8806     8.1594 H       
  53 H53            7.1775    12.1390     6.2429 H       
@<TRIPOS>BOND
   1    1    2 ar
   2    1    5 ar
   3    1   10 1
   4    2   11 1
   5    2    3 ar
   6    3    4 ar
   7    4    7 ar
   8    5    7 ar
   9    5    6 1
  10    6    9 2
  11    6   12 1
  12    7    8 1
  13    8    9 1
  14    9   13 1
  15   10   31 1
  16   10   32 1
  17   10   33 1
  18   11   34 1
  19   11   35 1
  20   11   36 1
  21   12   37 1
  22   12   38 1
  23   13   14 2
  24   13   15 am
  25   15   16 1
  26   15   39 1
  27   16   17 1
  28   16   20 1
  29   16   40 1
  30   17   18 1
  31   17   41 1
  32   17   42 1
  33   18   19 1
  34   18   43 1
  35   18   44 1
  36   19   20 1
  37   19   21 am
  38   20   45 1
  39   20   46 1
  40   21   22 1
  41   21   23 2
  42   22   24 1
  43   24   25 1
  44   24   47 1
  45   24   48 1
  46   25   26 ar
  47   25   30 ar
  48   26   27 ar
  49   26   49 1
  50   27   28 ar
  51   27   50 1
  52   28   29 ar
  53   28   51 1
  54   29   30 ar
  55   29   52 1
  56   30   53 1

#	End of record

