#	Name: ASD03330091
#	Creating user name:	WinNT
#	Creation time:	15. 06. 2019 20:36

#	Modifying user name:	WinNT
#	Modification time:	15. 06. 2019 20:36

#	Program:	/corina/corina34_cracker 3.40 0067  02.08.2006

@<TRIPOS>MOLECULE
ASD03330091
  69   72    0    0    0
SMALL
NO_CHARGES


@<TRIPOS>ATOM
   1 C1             1.4498     1.1961     0.0176 C.2     
   2 C2             1.1349    -0.0207     0.5440 C.2     
   3 C3             2.7657     1.5739     0.1860 C.2     
   4 C4             3.5372     0.6541     0.8589 C.2     
   5 S5             2.5547    -0.7380     1.2916 S.3     
   6 C6             4.9707     0.8125     1.1702 C.ar    
   7 C7             5.4361     0.5889     2.4697 C.ar    
   8 C8             5.8699     1.1810     0.1669 C.ar    
   9 C9             7.2086     1.3274     0.4643 C.ar    
  10 C10            7.6629     1.1097     1.7544 C.ar    
  11 C11            6.7783     0.7390     2.7535 C.ar    
  12 C12            3.3034     2.8612    -0.3157 C.ar    
  13 C13            3.1736     3.1949    -1.6633 C.ar    
  14 C14            3.9349     3.7434     0.5600 C.ar    
  15 C15            4.4340     4.9402     0.0900 C.ar    
  16 C16            4.3078     5.2670    -1.2532 C.ar    
  17 C17            3.6749     4.3933    -2.1268 C.ar    
  18 C18           -0.1922    -0.6399     0.4945 C.2     
  19 O19           -1.1860     0.0339     0.6943 O.2     
  20 N20           -0.3125    -1.9556     0.2279 N.am    
  21 C21           -1.6382    -2.5701     0.0744 C.3     
  22 C22            0.8797    -2.8013     0.0791 C.3     
  23 C23            0.7978    -3.5375    -1.2618 C.3     
  24 C24           -0.5271    -4.2994    -1.3408 C.3     
  25 C25           -1.6867    -3.3094    -1.2665 C.3     
  26 N26           -0.5946    -5.0333    -2.6115 N.3     
  27 Cl27           4.3283     0.1241     3.7229 Cl      
  28 C28           -0.6157    -5.2728    -0.1938 C.2     
  29 N29           -0.0281    -6.4820    -0.2892 N.am    
  30 O30           -1.2156    -4.9680     0.8152 O.2     
  31 C31           -3.2357    -7.2503    -4.1938 C.3     
  32 O32            4.8003     6.4473    -1.7131 O.3     
  33 C33            4.6362     6.7200    -3.1062 C.3     
  34 C34            5.2488     8.0830    -3.4346 C.3     
  35 O35            6.6611     8.0341    -3.2228 O.3     
  36 Cl36           9.3499     1.2953     2.1193 Cl      
  37 F37           -4.2404    -6.2831    -4.3049 F       
  38 F38           -3.4861    -8.0570    -3.0785 F       
  39 F39           -3.2204    -8.0414    -5.3475 F       
  40 C40           -1.8965    -5.6955    -2.7685 C.3     
  41 C41           -1.8797    -6.5607    -4.0303 C.3     
  42 H42            0.7272     1.8139    -0.4949 H       
  43 H43            5.5176     1.3505    -0.8399 H       
  44 H44            7.9046     1.6123    -0.3108 H       
  45 H45            7.1390     0.5707     3.7575 H       
  46 H46            2.6813     2.5156    -2.3434 H       
  47 H47            4.0328     3.4901     1.6053 H       
  48 H48            4.9233     5.6240     0.7678 H       
  49 H49            3.5784     4.6505    -3.1712 H       
  50 H50           -1.8101    -3.2758     0.8871 H       
  51 H51           -2.4045    -1.7952     0.0923 H       
  52 H52            1.7742    -2.1788     0.1001 H       
  53 H53            0.9173    -3.5262     0.8922 H       
  54 H54            0.8516    -2.8158    -2.0770 H       
  55 H55            1.6270    -4.2403    -1.3422 H       
  56 H56           -2.6308    -3.8483    -1.3461 H       
  57 H57           -1.6062    -2.5928    -2.0838 H       
  58 H58           -0.4027    -4.4234    -3.3920 H       
  59 H59            0.5136    -6.6982    -1.0643 H       
  60 H60           -0.1470    -7.1361     0.4171 H       
  61 H61            5.1366     5.9468    -3.6892 H       
  62 H62            3.5743     6.7302    -3.3518 H       
  63 H63            5.0460     8.3309    -4.4765 H       
  64 H64            4.8106     8.8435    -2.7883 H       
  65 H65            7.1163     8.8660    -3.4119 H       
  66 H66           -2.0916    -6.3240    -1.8996 H       
  67 H67           -2.6793    -4.9419    -2.8551 H       
  68 H68           -1.0969    -7.3142    -3.9437 H       
  69 H69           -1.6846    -5.9322    -4.8992 H       
@<TRIPOS>BOND
   1    1    2 2
   2    1    3 1
   3    1   42 1
   4    2   18 1
   5    2    5 1
   6    3    4 2
   7    3   12 1
   8    4    5 1
   9    4    6 1
  10    6    7 ar
  11    6    8 ar
  12    7   27 1
  13    7   11 ar
  14    8    9 ar
  15    8   43 1
  16    9   10 ar
  17    9   44 1
  18   10   11 ar
  19   10   36 1
  20   11   45 1
  21   12   13 ar
  22   12   14 ar
  23   13   17 ar
  24   13   46 1
  25   14   15 ar
  26   14   47 1
  27   15   16 ar
  28   15   48 1
  29   16   17 ar
  30   16   32 1
  31   17   49 1
  32   18   19 2
  33   18   20 am
  34   20   21 1
  35   20   22 1
  36   21   25 1
  37   21   50 1
  38   21   51 1
  39   22   23 1
  40   22   52 1
  41   22   53 1
  42   23   24 1
  43   23   54 1
  44   23   55 1
  45   24   25 1
  46   24   26 1
  47   24   28 1
  48   25   56 1
  49   25   57 1
  50   26   40 1
  51   26   58 1
  52   28   29 am
  53   28   30 2
  54   29   59 1
  55   29   60 1
  56   31   37 1
  57   31   38 1
  58   31   39 1
  59   31   41 1
  60   32   33 1
  61   33   34 1
  62   33   61 1
  63   33   62 1
  64   34   35 1
  65   34   63 1
  66   34   64 1
  67   35   65 1
  68   40   41 1
  69   40   66 1
  70   40   67 1
  71   41   68 1
  72   41   69 1

#	End of record

