#	Name: ASD03180069
#	Creating user name:	WinNT
#	Creation time:	15. 06. 2019 20:33

#	Modifying user name:	WinNT
#	Modification time:	15. 06. 2019 20:33

#	Program:	/corina/corina34_cracker 3.40 0067  02.08.2006

@<TRIPOS>MOLECULE
ASD03180069
  38   40    0    0    0
SMALL
NO_CHARGES


@<TRIPOS>ATOM
   1 C1             0.4451    -0.1027     1.6485 C.ar    
   2 C2             0.0407    -0.5330     0.3960 C.ar    
   3 C3             0.7977    -0.2253    -0.7219 C.ar    
   4 C4             1.9582     0.5118    -0.5899 C.ar    
   5 C5             2.3658     0.9445     0.6654 C.ar    
   6 C6             1.6049     0.6346     1.7853 C.ar    
   7 N7             3.5411     1.6907     0.8016 N.pl3   
   8 N8             4.5060     3.8677     0.9004 N.2     
   9 C9             4.2773     5.1734     0.7635 C.2     
  10 C10            3.4994     3.0729     0.7059 C.2     
  11 S11            2.0722     4.0212     0.3007 S.3     
  12 C12            3.0143     5.5038     0.4366 C.2     
  13 C13            5.3364     6.1877     0.9574 C.2     
  14 S14            5.1439     7.9324     0.8032 S.3     
  15 C15            6.7936     8.1587     1.1899 C.2     
  16 N16            7.3663     7.0213     1.3991 N.2     
  17 C17            6.6218     5.9422     1.2900 C.2     
  18 C18            7.4815     9.4968     1.2746 C.3     
  19 C19            7.1581     4.5517     1.5136 C.3     
  20 F20           -1.0939    -1.2545     0.2646 F       
  21 C21            2.0446     1.1026     3.1487 C.3     
  22 C22            2.7818     0.8459    -1.8069 C.3     
  23 H23           -0.1492    -0.3400     2.5185 H       
  24 H24            0.4806    -0.5622    -1.6978 H       
  25 H25            4.3852     1.2410     0.9630 H       
  26 H26            2.6419     6.5060     0.2843 H       
  27 H27            7.4053     9.8808     2.2918 H       
  28 H28            8.5320     9.3828     1.0070 H       
  29 H29            7.0049    10.1946     0.5861 H       
  30 H30            7.5325     4.1509     0.5716 H       
  31 H31            7.9690     4.5876     2.2411 H       
  32 H32            6.3607     3.9108     1.8897 H       
  33 H33            2.7600     0.3924     3.5633 H       
  34 H34            2.5138     2.0827     3.0625 H       
  35 H35            1.1780     1.1711     3.8062 H       
  36 H36            2.3859     1.7457    -2.2777 H       
  37 H37            3.8165     1.0167    -1.5096 H       
  38 H38            2.7388     0.0171    -2.5135 H       
@<TRIPOS>BOND
   1    1    2 ar
   2    1    6 ar
   3    1   23 1
   4    2    3 ar
   5    2   20 1
   6    3    4 ar
   7    3   24 1
   8    4    5 ar
   9    4   22 1
  10    5    6 ar
  11    5    7 1
  12    6   21 1
  13    7   10 1
  14    7   25 1
  15    8   10 2
  16    8    9 1
  17    9   12 2
  18    9   13 1
  19   10   11 1
  20   11   12 1
  21   12   26 1
  22   13   14 1
  23   13   17 2
  24   14   15 1
  25   15   16 2
  26   15   18 1
  27   16   17 1
  28   17   19 1
  29   18   27 1
  30   18   28 1
  31   18   29 1
  32   19   30 1
  33   19   31 1
  34   19   32 1
  35   21   33 1
  36   21   34 1
  37   21   35 1
  38   22   36 1
  39   22   37 1
  40   22   38 1

#	End of record

