#	Name: ASD01810508
#	Creating user name:	WinNT
#	Creation time:	15. 06. 2019 19:24

#	Modifying user name:	WinNT
#	Modification time:	15. 06. 2019 19:24

#	Program:	/corina/corina34_cracker 3.40 0067  02.08.2006

@<TRIPOS>MOLECULE
ASD01810508
  82   84    0    0    0
SMALL
NO_CHARGES


@<TRIPOS>ATOM
   1 C1             0.0945     1.0917    -0.6373 C.ar    
   2 C2             0.0060    -0.2934    -0.6037 C.ar    
   3 C3            -1.2046    -0.9165    -0.3881 C.ar    
   4 C4            -2.3601    -0.1609    -0.2007 C.ar    
   5 C5            -2.2666     1.2402    -0.2240 C.ar    
   6 C6            -1.0337     1.8615    -0.4427 C.ar    
   7 N7            -3.5659    -0.8108    -0.0077 N.3     
   8 C8            -4.5530    -0.0230     0.7316 C.3     
   9 C9            -4.7977     1.3079     0.0060 C.3     
  10 C10           -3.4745     2.0527    -0.0009 C.2     
  11 C11           -3.3621    -2.1230     0.6203 C.3     
  12 C12           -4.6995    -2.7525     0.9140 C.ar    
  13 C13           -5.3071    -3.5573    -0.0315 C.ar    
  14 C14           -6.5339    -4.1347     0.2378 C.ar    
  15 C15           -7.1529    -3.9076     1.4528 C.ar    
  16 C16           -6.5448    -3.1035     2.3987 C.ar    
  17 C17           -5.3160    -2.5296     2.1310 C.ar    
  18 F18            1.2878     1.6865    -0.8553 F       
  19 O19           -3.4155     3.2526     0.1680 O.2     
  20 C20           -5.2501     1.0484    -1.4079 C.2     
  21 N21           -5.5228     2.0820    -2.2286 N.am    
  22 O22           -5.3689    -0.0907    -1.8071 O.2     
  23 C23           -8.2733     6.3287   -10.6697 C.3     
  24 C24           -8.7153     6.0752   -12.0507 C.1     
  25 C25           -9.0678     5.8730   -13.1522 C.1     
  26 C26           -9.5097     5.6194   -14.5332 C.3     
  27 O27           -9.7340     6.8645   -15.1977 O.3     
  28 C28          -10.1472     6.8081   -16.4841 C.2     
  29 N29          -10.3546     5.7415   -17.1557 N.2     
  30 C30          -10.4490     8.0006   -17.3716 C.3     
  31 C31          -10.4763     7.3681   -18.7838 C.3     
  32 O32          -10.7893     5.9926   -18.4774 O.3     
  33 N33           -8.0428     5.0488    -9.9866 N.4     
  34 C34           -9.2899     4.2727    -9.9669 C.3     
  35 C35           -7.0063     4.2920   -10.7013 C.3     
  36 C36           -5.9627     1.8297    -3.6031 C.3     
  37 C37           -6.2028     3.1628    -4.3146 C.3     
  38 C38           -6.6622     2.8992    -5.7500 C.3     
  39 C39           -6.9023     4.2323    -6.4615 C.3     
  40 C40           -7.3616     3.9688    -7.8969 C.3     
  41 C41           -7.6017     5.3018    -8.6084 C.3     
  42 H42            0.8951    -0.8891    -0.7484 H       
  43 H43           -1.2576    -1.9950    -0.3646 H       
  44 H44           -0.9662     2.9391    -0.4684 H       
  45 H45           -5.4882    -0.5795     0.7944 H       
  46 H46           -4.1806     0.1746     1.7368 H       
  47 H47           -5.5501     1.8898     0.5383 H       
  48 H48           -2.7986    -2.7659    -0.0558 H       
  49 H49           -2.8072    -1.9985     1.5502 H       
  50 H50           -4.8235    -3.7347    -0.9808 H       
  51 H51           -7.0089    -4.7629    -0.5011 H       
  52 H52           -8.1116    -4.3581     1.6630 H       
  53 H53           -7.0285    -2.9258     3.3478 H       
  54 H54           -4.8410    -1.9014     2.8700 H       
  55 H55           -5.4279     2.9930    -1.9093 H       
  56 H56           -7.3480     6.9046   -10.6843 H       
  57 H57           -9.0424     6.8902   -10.1394 H       
  58 H58           -8.7406     5.0579   -15.0635 H       
  59 H59          -10.4351     5.0435   -14.5186 H       
  60 H60          -11.4179     8.4333   -17.1223 H       
  61 H61           -9.6593     8.7482   -17.2973 H       
  62 H62          -11.2568     7.8171   -19.3981 H       
  63 H63           -9.5035     7.4517   -19.2683 H       
  64 H64          -10.0590     4.8342    -9.4366 H       
  65 H65           -9.6171     4.0849   -10.9896 H       
  66 H66           -9.1188     3.3230    -9.4601 H       
  67 H67           -6.8352     3.3423   -10.1944 H       
  68 H68           -7.3335     4.1043   -11.7239 H       
  69 H69           -6.0809     4.8679   -10.7159 H       
  70 H70           -5.1936     1.2682    -4.1334 H       
  71 H71           -6.8880     1.2538    -3.5885 H       
  72 H72           -6.9719     3.7243    -3.7843 H       
  73 H73           -5.2775     3.7386    -4.3292 H       
  74 H74           -5.8931     2.3377    -6.2803 H       
  75 H75           -7.5875     2.3233    -5.7354 H       
  76 H76           -7.6714     4.7938    -5.9312 H       
  77 H77           -5.9769     4.8082    -6.4761 H       
  78 H78           -6.5925     3.4072    -8.4272 H       
  79 H79           -8.2870     3.3929    -7.8823 H       
  80 H80           -6.6764     5.8777    -8.6230 H       
  81 H81           -8.3708     5.8633    -8.0781 H       
  82 Br82           6.2878    13.7482     8.3478 Br      
@<TRIPOS>BOND
   1    1    2 ar
   2    1   18 1
   3    1    6 ar
   4    2    3 ar
   5    2   42 1
   6    3    4 ar
   7    3   43 1
   8    4    5 ar
   9    4    7 1
  10    5    6 ar
  11    5   10 1
  12    6   44 1
  13    7    8 1
  14    7   11 1
  15    8    9 1
  16    8   45 1
  17    8   46 1
  18    9   10 1
  19    9   20 1
  20    9   47 1
  21   10   19 2
  22   11   12 1
  23   11   48 1
  24   11   49 1
  25   12   13 ar
  26   12   17 ar
  27   13   14 ar
  28   13   50 1
  29   14   15 ar
  30   14   51 1
  31   15   16 ar
  32   15   52 1
  33   16   17 ar
  34   16   53 1
  35   17   54 1
  36   20   21 am
  37   20   22 2
  38   21   36 1
  39   21   55 1
  40   23   24 1
  41   23   33 1
  42   23   56 1
  43   23   57 1
  44   24   25 3
  45   25   26 1
  46   26   27 1
  47   26   58 1
  48   26   59 1
  49   27   28 1
  50   28   29 2
  51   28   30 1
  52   29   32 1
  53   30   31 1
  54   30   60 1
  55   30   61 1
  56   31   32 1
  57   31   62 1
  58   31   63 1
  59   33   41 1
  60   33   34 1
  61   33   35 1
  62   34   64 1
  63   34   65 1
  64   34   66 1
  65   35   67 1
  66   35   68 1
  67   35   69 1
  68   36   37 1
  69   36   70 1
  70   36   71 1
  71   37   38 1
  72   37   72 1
  73   37   73 1
  74   38   39 1
  75   38   74 1
  76   38   75 1
  77   39   40 1
  78   39   76 1
  79   39   77 1
  80   40   41 1
  81   40   78 1
  82   40   79 1
  83   41   80 1
  84   41   81 1

#	End of record

