#	Name: ASD01812871
#	Creating user name:	WinNT
#	Creation time:	15. 06. 2019 19:29

#	Modifying user name:	WinNT
#	Modification time:	15. 06. 2019 19:29

#	Program:	/corina/corina34_cracker 3.40 0067  02.08.2006

@<TRIPOS>MOLECULE
ASD01812871
  49   53    0    0    0
SMALL
NO_CHARGES


@<TRIPOS>ATOM
   1 N1            -0.0158     1.3130     0.0093 N.ar    
   2 C2             0.0021    -0.0041     0.0020 C.ar    
   3 N3             1.1297    -0.6935    -0.0125 N.ar    
   4 C4             2.2938    -0.0791    -0.0203 C.ar    
   5 C5             2.3344     1.3181    -0.0132 C.ar    
   6 C6             1.1137     2.0142     0.0022 C.ar    
   7 C7             3.7270    -0.5439    -0.0364 C.3     
   8 N8             4.5519     0.6705    -0.0378 N.am    
   9 C9             3.7403     1.7432    -0.0243 C.2     
  10 C10            6.0164     0.7080    -0.0508 C.3     
  11 C11            6.5057     0.7279    -1.4761 C.ar    
  12 C12            6.6988     1.9360    -2.1214 C.ar    
  13 C13            7.1473     1.9601    -3.4265 C.ar    
  14 C14            7.4054     0.7646    -4.0939 C.ar    
  15 C15            7.2092    -0.4494    -3.4391 C.ar    
  16 C16            6.7655    -0.4617    -2.1321 C.ar    
  17 O17            1.0885     3.3666     0.0093 O.3     
  18 O18            4.1167     2.8994    -0.0223 O.2     
  19 C19           -0.1240     3.9826     0.0237 C.ar    
  20 C20           -0.7330     4.2916     1.2327 C.ar    
  21 C21           -1.9664     4.9187     1.2440 C.ar    
  22 C22           -2.5925     5.2372     0.0532 C.ar    
  23 C23           -1.9888     4.9309    -1.1523 C.ar    
  24 C24           -0.7529     4.3089    -1.1705 C.ar    
  25 F25           -0.1223     3.9800     2.3968 F       
  26 N26            8.1117     1.8585    -6.2243 N.2     
  27 C27            7.8874     0.7843    -5.4976 C.2     
  28 C28            8.1854    -0.3433    -6.2872 C.2     
  29 C29            8.5914     0.0953    -7.4987 C.2     
  30 N30            8.5554     1.4451    -7.4869 N.pl3   
  31 C31            8.9171     2.3245    -8.6014 C.3     
  32 F32           -0.1610     4.0149    -2.3488 F       
  33 H33           -0.9363    -0.5387     0.0085 H       
  34 H34            3.9379    -1.1391     0.8520 H       
  35 H35            3.9209    -1.1295    -0.9351 H       
  36 H36            6.3615     1.6043     0.4644 H       
  37 H37            6.4069    -0.1750     0.4551 H       
  38 H38            6.4980     2.8621    -1.6033 H       
  39 H39            7.2974     2.9039    -3.9297 H       
  40 H40            7.4078    -1.3789    -3.9518 H       
  41 H41            6.6169    -1.4021    -1.6222 H       
  42 H42           -2.4407     5.1594     2.1839 H       
  43 H43           -3.5555     5.7260     0.0646 H       
  44 H44           -2.4807     5.1806    -2.0808 H       
  45 H45            8.1044    -1.3751    -5.9787 H       
  46 H46            8.8922    -0.5247    -8.3303 H       
  47 H47            9.9786     2.5656    -8.5442 H       
  48 H48            8.7095     1.8196    -9.5448 H       
  49 H49            8.3324     3.2426    -8.5443 H       
@<TRIPOS>BOND
   1    1    2 ar
   2    1    6 ar
   3    2    3 ar
   4    2   33 1
   5    3    4 ar
   6    4    7 1
   7    4    5 ar
   8    5    6 ar
   9    5    9 1
  10    6   17 1
  11    7    8 1
  12    7   34 1
  13    7   35 1
  14    8    9 am
  15    8   10 1
  16    9   18 2
  17   10   11 1
  18   10   36 1
  19   10   37 1
  20   11   12 ar
  21   11   16 ar
  22   12   13 ar
  23   12   38 1
  24   13   14 ar
  25   13   39 1
  26   14   15 ar
  27   14   27 1
  28   15   16 ar
  29   15   40 1
  30   16   41 1
  31   17   19 1
  32   19   20 ar
  33   19   24 ar
  34   20   21 ar
  35   20   25 1
  36   21   22 ar
  37   21   42 1
  38   22   23 ar
  39   22   43 1
  40   23   24 ar
  41   23   44 1
  42   24   32 1
  43   26   30 1
  44   26   27 2
  45   27   28 1
  46   28   29 2
  47   28   45 1
  48   29   30 1
  49   29   46 1
  50   30   31 1
  51   31   47 1
  52   31   48 1
  53   31   49 1

#	End of record

