#	Name: ASD05170091
#	Creating user name:	WinNT
#	Creation time:	15. 06. 2019 20:57

#	Modifying user name:	WinNT
#	Modification time:	15. 06. 2019 20:57

#	Program:	/corina/corina34_cracker 3.40 0067  02.08.2006

@<TRIPOS>MOLECULE
ASD05170091
  42   45    0    0    0
SMALL
NO_CHARGES


@<TRIPOS>ATOM
   1 C1            -0.2243     1.4598    -1.1201 C.ar    
   2 C2            -0.2356     0.0846    -1.2735 C.ar    
   3 C3             0.9625    -0.6070    -1.1381 C.ar    
   4 C4             2.1195     0.0953    -0.8565 C.ar    
   5 N5             2.0963     1.4074    -0.7157 N.ar    
   6 C6             0.9761     2.0990    -0.8378 C.ar    
   7 O7             0.9994     3.4475    -0.6857 O.3     
   8 C8             2.2644     4.0459    -0.3965 C.3     
   9 C9             2.0956     5.5374    -0.2626 C.2     
  10 C10            0.8933     6.2458    -0.3916 C.2     
  11 N11            3.0479     6.4016     0.0010 N.2     
  12 C12            1.2298     7.5546    -0.1927 C.2     
  13 C13            0.4215     8.7833    -0.1937 C.2     
  14 N14            2.5838     7.5883     0.0586 N.pl3   
  15 C15            3.2703     8.8520     0.3529 C.3     
  16 C16            2.5532     9.9941    -0.3657 C.3     
  17 N17            1.1055     9.9530    -0.1744 N.am    
  18 O18           -0.7943     8.7514    -0.2113 O.2     
  19 C19            3.2502     9.1051     1.8616 C.3     
  20 F20            0.9958    -1.9502    -1.2796 F       
  21 C21            0.4103    11.1479     0.0382 C.ar    
  22 C22            0.3069    12.0930    -0.9745 C.ar    
  23 N23           -0.3469    13.2202    -0.7776 N.ar    
  24 C24           -0.9249    13.4961     0.3753 C.ar    
  25 C25           -0.8657    12.6054     1.4307 C.ar    
  26 C26           -0.1935    11.4051     1.2665 C.ar    
  27 H27           -1.1362     2.0293    -1.2230 H       
  28 H28           -1.1542    -0.4393    -1.4930 H       
  29 H29            3.0536    -0.4362    -0.7501 H       
  30 H30            2.6539     3.6391     0.5368 H       
  31 H31            2.9619     3.8304    -1.2059 H       
  32 H32           -0.0867     5.8440    -0.6028 H       
  33 H33            4.3022     8.7949     0.0064 H       
  34 H34            2.9319    10.9427     0.0147 H       
  35 H35            2.7713     9.9318    -1.4318 H       
  36 H36            3.7583     8.2881     2.3739 H       
  37 H37            3.7600    10.0436     2.0795 H       
  38 H38            2.2178     9.1639     2.2065 H       
  39 H39            0.7674    11.9024    -1.9327 H       
  40 H40           -1.4515    14.4312     0.4967 H       
  41 H41           -1.3416    12.8406     2.3713 H       
  42 H42           -0.1355    10.6886     2.0724 H       
@<TRIPOS>BOND
   1    1    2 ar
   2    1    6 ar
   3    1   27 1
   4    2    3 ar
   5    2   28 1
   6    3    4 ar
   7    3   20 1
   8    4    5 ar
   9    4   29 1
  10    5    6 ar
  11    6    7 1
  12    7    8 1
  13    8    9 1
  14    8   30 1
  15    8   31 1
  16    9   11 2
  17    9   10 1
  18   10   12 2
  19   10   32 1
  20   11   14 1
  21   12   14 1
  22   12   13 1
  23   13   17 am
  24   13   18 2
  25   14   15 1
  26   15   16 1
  27   15   19 1
  28   15   33 1
  29   16   17 1
  30   16   34 1
  31   16   35 1
  32   17   21 1
  33   19   36 1
  34   19   37 1
  35   19   38 1
  36   21   22 ar
  37   21   26 ar
  38   22   23 ar
  39   22   39 1
  40   23   24 ar
  41   24   25 ar
  42   24   40 1
  43   25   26 ar
  44   25   41 1
  45   26   42 1

#	End of record

