#	Name: ASD01200179
#	Creating user name:	WinNT
#	Creation time:	15. 06. 2019 19:08

#	Modifying user name:	WinNT
#	Modification time:	15. 06. 2019 19:08

#	Program:	/corina/corina34_cracker 3.40 0067  02.08.2006

@<TRIPOS>MOLECULE
ASD01200179
  52   54    0    0    0
SMALL
NO_CHARGES


@<TRIPOS>ATOM
   1 C1             0.9657     1.3792    -1.7208 C.2     
   2 C2             0.8561    -0.1208    -1.6255 C.3     
   3 O3             1.5738     1.9979    -0.8734 O.2     
   4 N4             0.3925     2.0326    -2.7509 N.am    
   5 S5             1.7307    -0.6980    -0.1448 S.3     
   6 N6             2.5810    -3.2453    -0.4166 N.am    
   7 C7             1.3658    -2.4747    -0.1220 C.3     
   8 C8             0.9331    -2.9002     1.2618 C.2     
   9 C9             1.8115    -3.8044     1.6832 C.2     
  10 C10            2.8321    -4.0232     0.6532 C.2     
  11 O11            3.7674    -4.7943     0.7507 O.2     
  12 C12            1.7653    -4.5006     3.0190 C.3     
  13 C13           -0.2668    -2.3948     2.0206 C.3     
  14 C14            3.3704    -3.1835    -1.6492 C.3     
  15 C15            4.4345    -2.1253    -1.5117 C.ar    
  16 C16            5.6775    -2.4580    -1.0058 C.ar    
  17 C17            6.6546    -1.4897    -0.8788 C.ar    
  18 C18            6.3878    -0.1826    -1.2594 C.ar    
  19 C19            5.1398     0.1487    -1.7668 C.ar    
  20 C20            4.1679    -0.8244    -1.8970 C.ar    
  21 O21            7.3472     0.7718    -1.1351 O.3     
  22 C22            7.0022     2.0961    -1.5467 C.3     
  23 C23            0.4040     3.4229    -2.7853 C.ar    
  24 C24           -0.0880     4.0858    -3.9067 C.ar    
  25 C25           -0.0743     5.4651    -3.9346 C.ar    
  26 C26            0.4392     6.1492    -2.8225 C.ar    
  27 C27            0.9143     5.4138    -1.7354 C.ar    
  28 N28            0.8778     4.0978    -1.7484 N.ar    
  29 C29            0.4756     7.5806    -2.8031 C.1     
  30 N30            0.5046     8.7162    -2.7877 N.1     
  31 H31           -0.1942    -0.4050    -1.5611 H       
  32 H32            1.3017    -0.5746    -2.5107 H       
  33 H33           -0.0281     1.5332    -3.4683 H       
  34 H34            0.5876    -2.7076    -0.8487 H       
  35 H35            1.1808    -5.4164     2.9313 H       
  36 H36            2.7789    -4.7455     3.3363 H       
  37 H37            1.3028    -3.8434     3.7554 H       
  38 H38           -1.1065    -3.0724     1.8658 H       
  39 H39           -0.0305    -2.3462     3.0836 H       
  40 H40           -0.5315    -1.4003     1.6614 H       
  41 H41            3.8406    -4.1504    -1.8283 H       
  42 H42            2.7179    -2.9361    -2.4865 H       
  43 H43            5.8846    -3.4756    -0.7093 H       
  44 H44            7.6252    -1.7500    -0.4832 H       
  45 H45            4.9297     1.1656    -2.0637 H       
  46 H46            3.1978    -0.5680    -2.2964 H       
  47 H47            6.7309     2.0893    -2.6024 H       
  48 H48            6.1573     2.4514    -0.9567 H       
  49 H49            7.8551     2.7575    -1.3950 H       
  50 H50           -0.4756     3.5265    -4.7453 H       
  51 H51           -0.4493     6.0049    -4.7916 H       
  52 H52            1.3119     5.9293    -0.8737 H       
@<TRIPOS>BOND
   1    1    2 1
   2    1    3 2
   3    1    4 am
   4    2    5 1
   5    2   31 1
   6    2   32 1
   7    4   23 1
   8    4   33 1
   9    5    7 1
  10    6    7 1
  11    6   10 am
  12    6   14 1
  13    7    8 1
  14    7   34 1
  15    8    9 2
  16    8   13 1
  17    9   10 1
  18    9   12 1
  19   10   11 2
  20   12   35 1
  21   12   36 1
  22   12   37 1
  23   13   38 1
  24   13   39 1
  25   13   40 1
  26   14   15 1
  27   14   41 1
  28   14   42 1
  29   15   16 ar
  30   15   20 ar
  31   16   17 ar
  32   16   43 1
  33   17   18 ar
  34   17   44 1
  35   18   19 ar
  36   18   21 1
  37   19   20 ar
  38   19   45 1
  39   20   46 1
  40   21   22 1
  41   22   47 1
  42   22   48 1
  43   22   49 1
  44   23   24 ar
  45   23   28 ar
  46   24   25 ar
  47   24   50 1
  48   25   26 ar
  49   25   51 1
  50   26   27 ar
  51   26   29 1
  52   27   28 ar
  53   27   52 1
  54   29   30 3

#	End of record

