#	Name: ASD07930436
#	Creating user name:	WinNT
#	Creation time:	15. 06. 2019 21:12

#	Modifying user name:	WinNT
#	Modification time:	15. 06. 2019 21:12

#	Program:	/corina/corina34_cracker 3.40 0067  02.08.2006

@<TRIPOS>MOLECULE
ASD07930436
  46   48    0    0    0
SMALL
NO_CHARGES


@<TRIPOS>ATOM
   1 N1             0.0005     1.2713     0.0036 N.2     
   2 N2            -1.1612    -0.7565     0.0076 N.pl3   
   3 C3            -1.3888    -1.7914    -1.0064 C.3     
   4 C4            -0.2711    -2.8398    -0.9193 C.3     
   5 S5             1.3268    -1.9882    -1.1092 S.o2    
   6 N6             1.2082    -0.7373    -0.0149 N.am    
   7 C7             0.0132    -0.0320    -0.0009 C.2     
   8 C8             2.3110    -0.3989     0.8882 C.3     
   9 C9            -1.3840    -1.1538    -2.3972 C.3     
  10 C10           -2.7200    -2.4533    -0.7598 C.ar    
  11 C11           -3.4610    -2.1182     0.3561 C.ar    
  12 C12           -4.6880    -2.7283     0.5827 C.ar    
  13 C13           -5.1669    -3.6741    -0.3140 C.ar    
  14 C14           -4.4225    -4.0064    -1.4290 C.ar    
  15 C15           -3.2020    -3.3932    -1.6557 C.ar    
  16 N16           -5.4404    -2.3905     1.7132 N.am    
  17 C17           -6.7862    -2.3666     1.6446 C.2     
  18 O18           -7.3444    -2.5430     0.5775 O.2     
  19 C19           -7.5779    -2.1282     2.8555 C.2     
  20 O20            2.3891    -2.7938    -0.6176 O.2     
  21 O21            1.4101    -1.3488    -2.3755 O.2     
  22 C22           -8.9408    -2.0788     2.9264 C.2     
  23 F23           -2.4754    -3.7197    -2.7469 F       
  24 C24           -9.2662    -1.8293     4.2688 C.2     
  25 C25           -8.1026    -1.7384     4.9498 C.2     
  26 O26           -7.0878    -1.9248     4.0959 O.3     
  27 C27           -9.9080    -2.2572     1.7845 C.3     
  28 H28            0.8357     1.7645    -0.0028 H       
  29 H29           -1.8367    -0.5788     0.6806 H       
  30 H30           -0.3091    -3.3378     0.0495 H       
  31 H31           -0.3931    -3.5740    -1.7155 H       
  32 H32            2.9601     0.3347     0.4102 H       
  33 H33            1.9094     0.0183     1.8117 H       
  34 H34            2.8840    -1.2981     1.1148 H       
  35 H35           -0.4200    -0.6772    -2.5751 H       
  36 H36           -1.5532    -1.9235    -3.1503 H       
  37 H37           -2.1753    -0.4067    -2.4572 H       
  38 H38           -3.0865    -1.3825     1.0525 H       
  39 H39           -6.1206    -4.1500    -0.1395 H       
  40 H40           -4.7944    -4.7423    -2.1265 H       
  41 H41           -4.9933    -2.1735     2.5462 H       
  42 H42          -10.2598    -1.7285     4.6800 H       
  43 H43           -8.0069    -1.5506     6.0091 H       
  44 H44          -10.1683    -3.3115     1.6903 H       
  45 H45          -10.8097    -1.6762     1.9780 H       
  46 H46           -9.4455    -1.9131     0.8595 H       
@<TRIPOS>BOND
   1    1    7 2
   2    1   28 1
   3    2    3 1
   4    2    7 1
   5    2   29 1
   6    3    4 1
   7    3    9 1
   8    3   10 1
   9    4    5 1
  10    4   30 1
  11    4   31 1
  12    5    6 am
  13    5   20 2
  14    5   21 2
  15    6    7 1
  16    6    8 1
  17    8   32 1
  18    8   33 1
  19    8   34 1
  20    9   35 1
  21    9   36 1
  22    9   37 1
  23   10   11 ar
  24   10   15 ar
  25   11   12 ar
  26   11   38 1
  27   12   13 ar
  28   12   16 1
  29   13   14 ar
  30   13   39 1
  31   14   15 ar
  32   14   40 1
  33   15   23 1
  34   16   17 am
  35   16   41 1
  36   17   18 2
  37   17   19 1
  38   19   22 2
  39   19   26 1
  40   22   24 1
  41   22   27 1
  42   24   25 2
  43   24   42 1
  44   25   26 1
  45   25   43 1
  46   27   44 1
  47   27   45 1
  48   27   46 1

#	End of record

