#	Name: ASD01900743
#	Creating user name:	WinNT
#	Creation time:	15. 06. 2019 19:52

#	Modifying user name:	WinNT
#	Modification time:	15. 06. 2019 19:52

#	Program:	/corina/corina34_cracker 3.40 0067  02.08.2006

@<TRIPOS>MOLECULE
ASD01900743
  54   58    0    0    0
SMALL
NO_CHARGES


@<TRIPOS>ATOM
   1 C1            -1.3315     2.1756    -0.5592 C.ar    
   2 C2            -1.3833     0.7951    -0.4116 C.ar    
   3 C3            -2.5774     0.1174    -0.5501 C.ar    
   4 C4            -3.7432     0.8138    -0.8401 C.ar    
   5 C5            -3.6879     2.2058    -0.9928 C.ar    
   6 O6            -4.9191     0.1610    -0.9668 O.3     
   7 C7            -5.9930     0.7414    -1.5288 C.2     
   8 C8            -6.0852     2.0797    -1.7248 C.2     
   9 C9            -4.9477     2.9229    -1.3159 C.2     
  10 C10           -7.1187    -0.1137    -1.9506 C.2     
  11 N11           -8.2043     0.4519    -2.5164 N.2     
  12 C12           -9.2232    -0.2733    -2.9042 C.2     
  13 C13           -9.1952    -1.6718    -2.7319 C.2     
  14 N14           -8.0856    -2.2598    -2.1526 N.pl3   
  15 C15           -7.0408    -1.4606    -1.7670 C.2     
  16 C16           -2.4864     2.8856    -0.8447 C.ar    
  17 C17          -10.0921    -2.6798    -3.0312 C.2     
  18 C18           -9.5079    -3.8823    -2.6245 C.2     
  19 C19           -8.2914    -3.5999    -2.0949 C.2     
  20 O20           -0.1483     2.8305    -0.4180 O.3     
  21 C21            1.0011     2.0361    -0.1180 C.3     
  22 C22            2.2289     2.9409     0.0030 C.3     
  23 N23            2.0581     3.8480     1.1458 N.3     
  24 C24            3.2534     4.6781     1.3421 C.3     
  25 C25            1.7243     3.1010     2.3652 C.3     
  26 C26            1.4117     4.0827     3.4969 C.3     
  27 C27            2.6302     4.9771     3.7413 C.3     
  28 C28            2.9865     5.7069     2.4432 C.3     
  29 F29            2.3309     5.9132     4.7369 F       
  30 F30            3.7134     4.1906     4.1478 F       
  31 N31           -5.0425     4.2291    -1.2414 N.2     
  32 O32           -3.9620     4.9894    -0.7319 O.3     
  33 H33           -0.4803     0.2470    -0.1865 H       
  34 H34           -2.6052    -0.9559    -0.4333 H       
  35 H35           -6.9680     2.5159    -2.1684 H       
  36 H36          -10.0834     0.1992    -3.3549 H       
  37 H37           -6.1633    -1.8964    -1.3126 H       
  38 H38           -2.4507     3.9588    -0.9604 H       
  39 H39          -11.0614    -2.5607    -3.4924 H       
  40 H40           -9.9477    -4.8644    -2.7160 H       
  41 H41           -7.5988    -4.3244    -1.6926 H       
  42 H42            0.8434     1.5099     0.8235 H       
  43 H43            1.1607     1.3119    -0.9167 H       
  44 H44            3.1179     2.3287     0.1548 H       
  45 H45            2.3415     3.5247    -0.9106 H       
  46 H46            4.0917     4.0448     1.6323 H       
  47 H47            3.4934     5.1948     0.4128 H       
  48 H48            0.8536     2.4722     2.1791 H       
  49 H49            2.5698     2.4751     2.6506 H       
  50 H50            0.5575     4.6997     3.2178 H       
  51 H51            1.1792     3.5281     4.4059 H       
  52 H52            3.8791     6.3126     2.5994 H       
  53 H53            2.1571     6.3494     2.1476 H       
  54 H54           -4.1248     5.9425    -0.7160 H       
@<TRIPOS>BOND
   1    1    2 ar
   2    1   20 1
   3    1   16 ar
   4    2    3 ar
   5    2   33 1
   6    3    4 ar
   7    3   34 1
   8    4    5 ar
   9    4    6 1
  10    5   16 ar
  11    5    9 1
  12    6    7 1
  13    7    8 2
  14    7   10 1
  15    8    9 1
  16    8   35 1
  17    9   31 2
  18   10   11 1
  19   10   15 2
  20   11   12 2
  21   12   13 1
  22   12   36 1
  23   13   14 1
  24   13   17 2
  25   14   15 1
  26   14   19 1
  27   15   37 1
  28   16   38 1
  29   17   18 1
  30   17   39 1
  31   18   19 2
  32   18   40 1
  33   19   41 1
  34   20   21 1
  35   21   22 1
  36   21   42 1
  37   21   43 1
  38   22   23 1
  39   22   44 1
  40   22   45 1
  41   23   24 1
  42   23   25 1
  43   24   28 1
  44   24   46 1
  45   24   47 1
  46   25   26 1
  47   25   48 1
  48   25   49 1
  49   26   27 1
  50   26   50 1
  51   26   51 1
  52   27   28 1
  53   27   29 1
  54   27   30 1
  55   28   52 1
  56   28   53 1
  57   31   32 1
  58   32   54 1

#	End of record

