#	Name: ASD05140002
#	Creating user name:	WinNT
#	Creation time:	15. 06. 2019 20:57

#	Modifying user name:	WinNT
#	Modification time:	15. 06. 2019 20:57

#	Program:	/corina/corina34_cracker 3.40 0067  02.08.2006

@<TRIPOS>MOLECULE
ASD05140002
 101  106    0    0    0
SMALL
NO_CHARGES


@<TRIPOS>ATOM
   1 C1            -0.0185     1.5123     0.0104 C.3     
   2 C2             0.0021    -0.0041     0.0020 C.3     
   3 C3             0.5967    -0.5364    -1.2626 C.2     
   4 N4             1.8907    -0.4317    -1.5444 N.am    
   5 C5             2.8304     0.0759    -0.5515 C.3     
   6 C6             2.5478     1.5162    -0.2142 C.2     
   7 C7             1.3689     2.1005     0.0003 C.2     
   8 N8             0.7933    -0.4785     1.1400 N.am    
   9 C9             0.5684    -1.7045     1.6527 C.2     
  10 C10            1.3823    -2.1926     2.8234 C.3     
  11 O11           -0.2889    -2.4150     1.1719 O.2     
  12 N12            3.5567     2.4498    -0.0837 N.pl3   
  13 C13            3.0278     3.6834     0.2028 C.ar    
  14 C14            1.6347     3.5256     0.2623 C.ar    
  15 C15            3.5810     4.9415     0.4243 C.ar    
  16 C16            2.7564     6.0117     0.6933 C.ar    
  17 C17            1.3785     5.8501     0.7455 C.ar    
  18 C18            0.8155     4.6229     0.5331 C.ar    
  19 C19            2.3789    -0.8309    -2.8667 C.3     
  20 O20           -0.1311    -1.0858    -2.0622 O.2     
  21 C21            2.0675    -2.2870    -3.0987 C.2     
  22 N22            2.4261    -2.8767    -4.2563 N.am    
  23 O23            1.4941    -2.9282    -2.2436 O.2     
  24 C24            1.6919     0.0149    -3.9408 C.3     
  25 C25            2.1016     1.4566    -3.7830 C.ar    
  26 C26            3.2158     1.9346    -4.4472 C.ar    
  27 C27            1.3596     2.3014    -2.9788 C.ar    
  28 C28            1.7337     3.6239    -2.8341 C.ar    
  29 C29            2.8525     4.1025    -3.4947 C.ar    
  30 C30            3.5922     3.2566    -4.3037 C.ar    
  31 C31            2.1233    -4.2923    -4.4818 C.3     
  32 C32            0.6989    -4.4292    -5.0234 C.3     
  33 C33            3.0975    -4.8614    -5.4808 C.2     
  34 C34           -0.2981    -3.9666    -3.9590 C.3     
  35 C35           -1.7224    -4.1035    -4.5006 C.3     
  36 N36           -2.6771    -3.6605    -3.4814 N.pl3   
  37 C37           -4.0264    -3.6930    -3.7431 C.2     
  38 N38           -4.4798    -4.1411    -4.9612 N.pl3   
  39 N39           -4.8758    -3.2989    -2.8364 N.2     
  40 N40            3.0105    -6.1562    -5.8445 N.am    
  41 O41            3.9597    -4.1542    -5.9576 O.2     
  42 C42            3.9575    -6.7095    -6.8158 C.3     
  43 C43            3.4633    -6.4337    -8.2125 C.2     
  44 C44            4.0784    -8.2202    -6.6065 C.3     
  45 N45            4.1779    -6.8535    -9.2753 N.am    
  46 O46            2.4225    -5.8341    -8.3801 O.2     
  47 C47            4.6879    -8.4931    -5.2555 C.2     
  48 C48            5.9863    -8.7119    -4.9948 C.2     
  49 C49            3.9765    -8.5634    -3.9769 C.ar    
  50 C50            4.9541    -8.8381    -3.0029 C.ar    
  51 N51            6.1642    -8.9220    -3.6544 N.pl3   
  52 C52            2.6399    -8.4197    -3.6009 C.ar    
  53 C53            2.2874    -8.5467    -2.2867 C.ar    
  54 C54            3.2479    -8.8172    -1.3221 C.ar    
  55 C55            4.5727    -8.9637    -1.6712 C.ar    
  56 F56            3.2193     5.3951    -3.3540 F       
  57 H57           -0.5580     1.8636    -0.8692 H       
  58 H58           -0.5411     1.8541     0.9038 H       
  59 H59           -1.0183    -0.3748     0.0997 H       
  60 H60            2.7511    -0.5248     0.3545 H       
  61 H61            3.8437    -0.0060    -0.9449 H       
  62 H62            1.4789     0.0897     1.5246 H       
  63 H63            2.0969    -1.4230     3.1151 H       
  64 H64            0.7198    -2.4097     3.6612 H       
  65 H65            1.9189    -3.0982     2.5404 H       
  66 H66            4.5032     2.2609    -0.1802 H       
  67 H67            4.6516     5.0778     0.3859 H       
  68 H68            3.1866     6.9872     0.8658 H       
  69 H69            0.7467     6.7005     0.9556 H       
  70 H70           -0.2570     4.5030     0.5741 H       
  71 H71            3.4568    -0.6773    -2.9176 H       
  72 H72            2.8846    -2.3639    -4.9402 H       
  73 H73            1.9876    -0.3409    -4.9277 H       
  74 H74            0.6105    -0.0694    -3.8331 H       
  75 H75            3.7926     1.2747    -5.0782 H       
  76 H76            0.4869     1.9279    -2.4637 H       
  77 H77            1.1535     4.2839    -2.2063 H       
  78 H78            4.4652     3.6287    -4.8192 H       
  79 H79            2.2082    -4.8363    -3.5411 H       
  80 H80            0.5890    -3.8136    -5.9162 H       
  81 H81            0.5044    -5.4718    -5.2747 H       
  82 H82           -0.1881    -4.5821    -3.0662 H       
  83 H83           -0.1036    -2.9239    -3.7077 H       
  84 H84           -1.8324    -3.4879    -5.3934 H       
  85 H85           -1.9169    -5.1461    -4.7519 H       
  86 H86           -2.3572    -3.3443    -2.6220 H       
  87 H87           -3.8478    -4.4344    -5.6360 H       
  88 H88           -5.4318    -4.1640    -5.1458 H       
  89 H89           -5.8278    -3.3217    -3.0210 H       
  90 H90            2.3208    -6.7218    -5.4632 H       
  91 H91            4.9334    -6.2442    -6.6773 H       
  92 H92            3.0889    -8.6744    -6.6572 H       
  93 H93            4.7134    -8.6451    -7.3840 H       
  94 H94            5.0103    -7.3330    -9.1412 H       
  95 H95            3.8598    -6.6760   -10.1743 H       
  96 H96            6.7740    -8.7211    -5.7336 H       
  97 H97            7.0158    -9.1034    -3.2270 H       
  98 H98            1.8871    -8.2085    -4.3459 H       
  99 H99            1.2531    -8.4354    -1.9963 H       
 100 H100           2.9539    -8.9144    -0.2874 H       
 101 H101           5.3127    -9.1740    -0.9133 H       
@<TRIPOS>BOND
   1    1    2 1
   2    1    7 1
   3    1   57 1
   4    1   58 1
   5    2    3 1
   6    2    8 1
   7    2   59 1
   8    3    4 am
   9    3   20 2
  10    4    5 1
  11    4   19 1
  12    5    6 1
  13    5   60 1
  14    5   61 1
  15    6    7 2
  16    6   12 1
  17    7   14 1
  18    8    9 am
  19    8   62 1
  20    9   10 1
  21    9   11 2
  22   10   63 1
  23   10   64 1
  24   10   65 1
  25   12   13 1
  26   12   66 1
  27   13   14 ar
  28   13   15 ar
  29   14   18 ar
  30   15   16 ar
  31   15   67 1
  32   16   17 ar
  33   16   68 1
  34   17   18 ar
  35   17   69 1
  36   18   70 1
  37   19   21 1
  38   19   24 1
  39   19   71 1
  40   21   22 am
  41   21   23 2
  42   22   31 1
  43   22   72 1
  44   24   25 1
  45   24   73 1
  46   24   74 1
  47   25   26 ar
  48   25   27 ar
  49   26   30 ar
  50   26   75 1
  51   27   28 ar
  52   27   76 1
  53   28   29 ar
  54   28   77 1
  55   29   30 ar
  56   29   56 1
  57   30   78 1
  58   31   32 1
  59   31   33 1
  60   31   79 1
  61   32   34 1
  62   32   80 1
  63   32   81 1
  64   33   40 am
  65   33   41 2
  66   34   35 1
  67   34   82 1
  68   34   83 1
  69   35   36 1
  70   35   84 1
  71   35   85 1
  72   36   37 1
  73   36   86 1
  74   37   38 1
  75   37   39 2
  76   38   87 1
  77   38   88 1
  78   39   89 1
  79   40   42 1
  80   40   90 1
  81   42   43 1
  82   42   44 1
  83   42   91 1
  84   43   45 am
  85   43   46 2
  86   44   47 1
  87   44   92 1
  88   44   93 1
  89   45   94 1
  90   45   95 1
  91   47   48 2
  92   47   49 1
  93   48   51 1
  94   48   96 1
  95   49   50 ar
  96   49   52 ar
  97   50   51 1
  98   50   55 ar
  99   51   97 1
 100   52   53 ar
 101   52   98 1
 102   53   54 ar
 103   53   99 1
 104   54   55 ar
 105   54  100 1
 106   55  101 1

#	End of record

