#	Name: ASD09740469
#	Creating user name:	WinNT
#	Creation time:	15. 06. 2019 21:23

#	Modifying user name:	WinNT
#	Modification time:	15. 06. 2019 21:23

#	Program:	/corina/corina34_cracker 3.40 0067  02.08.2006

@<TRIPOS>MOLECULE
ASD09740469
  57   60    0    0    0
SMALL
NO_CHARGES


@<TRIPOS>ATOM
   1 N1            -0.6748     0.9154    -0.2143 N.2     
   2 C2            -0.6238    -0.3648     0.0575 C.2     
   3 C3             0.3486     1.6410     0.1401 C.2     
   4 S4             1.5480     0.6119     0.9182 S.3     
   5 C5             0.4988    -0.7844     0.6809 C.2     
   6 C6             0.4819     3.0963    -0.0773 C.ar    
   7 C7            -0.5394     3.8026    -0.7074 C.ar    
   8 C8             1.6313     3.7656     0.3549 C.ar    
   9 C9             1.7607     5.1227     0.1551 C.ar    
  10 C10            0.7513     5.8358    -0.4765 C.ar    
  11 C11           -0.4081     5.1758    -0.9099 C.ar    
  12 O12            0.8838     7.1719    -0.6702 O.3     
  13 C13            2.1348     7.7593    -0.3065 C.3     
  14 C14            2.3524     9.0385    -1.1171 C.3     
  15 C15            2.1251     8.0966     1.1859 C.3     
  16 C16           -1.4512     5.9090    -1.5619 C.1     
  17 N17           -2.2787     6.4907    -2.0791 N.1     
  18 C18            0.7953    -2.1724     1.0929 C.ar    
  19 C19            2.0186    -2.7577     0.7520 C.ar    
  20 C20            2.2893    -4.0534     1.1400 C.ar    
  21 C21            1.3489    -4.7694     1.8650 C.ar    
  22 C22            0.1378    -4.1957     2.2035 C.ar    
  23 C23           -0.1424    -2.8982     1.8273 C.ar    
  24 C24            3.1928    -2.1972    -0.0212 C.3     
  25 C25            4.3767    -3.1303     0.3106 C.3     
  26 C26            3.6656    -4.4563     0.6545 C.3     
  27 N27            3.5571    -5.2994    -0.5387 N.am    
  28 S28            4.3584    -6.7470    -0.6053 S.o2    
  29 O29            3.9942    -7.2914    -1.8664 O.2     
  30 O30            5.7087    -6.4140    -0.3135 O.2     
  31 C31            3.6386    -7.7253     0.7421 C.3     
  32 C32            4.2562    -9.0999     0.7503 C.2     
  33 O33            3.8735   -10.0021     1.6676 O.3     
  34 O34            5.0957    -9.3899    -0.0688 O.2     
  35 H35           -1.4264    -1.0403    -0.1994 H       
  36 H36           -1.4297     3.2886    -1.0383 H       
  37 H37            2.4203     3.2166     0.8473 H       
  38 H38            2.6508     5.6335     0.4916 H       
  39 H39            2.9407     7.0557    -0.5147 H       
  40 H40            1.5464     9.7422    -0.9088 H       
  41 H41            3.3066     9.4865    -0.8397 H       
  42 H42            2.3593     8.7982    -2.1802 H       
  43 H43            1.3191     8.8002     1.3941 H       
  44 H44            1.9701     7.1852     1.7633 H       
  45 H45            3.0793     8.5446     1.4633 H       
  46 H46            1.5642    -5.7836     2.1672 H       
  47 H47           -0.5881    -4.7621     2.7680 H       
  48 H48           -1.0886    -2.4496     2.0916 H       
  49 H49            2.9848    -2.2157    -1.0910 H       
  50 H50            3.4098    -1.1801     0.3053 H       
  51 H51            5.0280    -3.2529    -0.5549 H       
  52 H52            4.9362    -2.7568     1.1682 H       
  53 H53            4.2056    -4.9819     1.4421 H       
  54 H54            3.0159    -5.0096    -1.2897 H       
  55 H55            3.8359    -7.2327     1.6943 H       
  56 H56            2.5622    -7.8114     0.5938 H       
  57 H57            4.2979   -10.8703     1.6330 H       
@<TRIPOS>BOND
   1    1    2 1
   2    1    3 2
   3    2    5 2
   4    2   35 1
   5    3    4 1
   6    3    6 1
   7    4    5 1
   8    5   18 1
   9    6    7 ar
  10    6    8 ar
  11    7   11 ar
  12    7   36 1
  13    8    9 ar
  14    8   37 1
  15    9   10 ar
  16    9   38 1
  17   10   11 ar
  18   10   12 1
  19   11   16 1
  20   12   13 1
  21   13   14 1
  22   13   15 1
  23   13   39 1
  24   14   40 1
  25   14   41 1
  26   14   42 1
  27   15   43 1
  28   15   44 1
  29   15   45 1
  30   16   17 3
  31   18   19 ar
  32   18   23 ar
  33   19   20 ar
  34   19   24 1
  35   20   21 ar
  36   20   26 1
  37   21   22 ar
  38   21   46 1
  39   22   23 ar
  40   22   47 1
  41   23   48 1
  42   24   25 1
  43   24   49 1
  44   24   50 1
  45   25   26 1
  46   25   51 1
  47   25   52 1
  48   26   27 1
  49   26   53 1
  50   27   28 am
  51   27   54 1
  52   28   29 2
  53   28   30 2
  54   28   31 1
  55   31   32 1
  56   31   55 1
  57   31   56 1
  58   32   33 1
  59   32   34 2
  60   33   57 1

#	End of record

