#	Name: ASD01180007
#	Creating user name:	WinNT
#	Creation time:	15. 06. 2019 19:06

#	Modifying user name:	WinNT
#	Modification time:	15. 06. 2019 19:06

#	Program:	/corina/corina34_cracker 3.40 0067  02.08.2006

@<TRIPOS>MOLECULE
ASD01180007
  26   27    0    0    0
SMALL
NO_CHARGES


@<TRIPOS>ATOM
   1 N1            -0.0158     1.3135     0.0093 N.ar    
   2 C2             0.0021    -0.0041     0.0020 C.ar    
   3 C3             1.2206    -0.7012    -0.0134 C.ar    
   4 N4             2.3612    -0.0536    -0.0208 N.ar    
   5 C5             2.3668     1.2851    -0.0136 C.ar    
   6 C6             3.5744     2.0032    -0.0211 C.ar    
   7 C7             3.5508     3.3651    -0.0136 C.ar    
   8 C8             2.3413     4.0610     0.0015 C.ar    
   9 C9             1.1520     3.3966     0.0092 C.ar    
  10 C10            1.1384     1.9920     0.0019 C.ar    
  11 C11            1.2181    -2.2082    -0.0210 C.3     
  12 C12            1.9263    -2.7130    -1.2798 C.3     
  13 C13            1.9506    -2.7257     1.2186 C.3     
  14 O14           -1.1661    -0.6923     0.0099 O.3     
  15 Cl15           2.3523     5.7969     0.0112 Cl      
  16 Cl16           5.0460     4.2472    -0.0224 Cl      
  17 H17            4.5177     1.4774    -0.0325 H       
  18 H18            0.2232     3.9476     0.0209 H       
  19 H19            0.1899    -2.5699    -0.0128 H       
  20 H20            2.9545    -2.3513    -1.2879 H       
  21 H21            1.9245    -3.8030    -1.2853 H       
  22 H22            1.4045    -2.3443    -2.1628 H       
  23 H23            2.9788    -2.3640     1.2104 H       
  24 H24            1.4461    -2.3660     2.1153 H       
  25 H25            1.9488    -3.8157     1.2131 H       
  26 H26           -1.5138    -0.8872    -0.8711 H       
@<TRIPOS>BOND
   1    1    2 ar
   2    1   10 ar
   3    2    3 ar
   4    2   14 1
   5    3    4 ar
   6    3   11 1
   7    4    5 ar
   8    5    6 ar
   9    5   10 ar
  10    6    7 ar
  11    6   17 1
  12    7    8 ar
  13    7   16 1
  14    8    9 ar
  15    8   15 1
  16    9   10 ar
  17    9   18 1
  18   11   12 1
  19   11   13 1
  20   11   19 1
  21   12   20 1
  22   12   21 1
  23   12   22 1
  24   13   23 1
  25   13   24 1
  26   13   25 1
  27   14   26 1

#	End of record

