#	Name: ASD01816877
#	Creating user name:	WinNT
#	Creation time:	15. 06. 2019 19:36

#	Modifying user name:	WinNT
#	Modification time:	15. 06. 2019 19:36

#	Program:	/corina/corina34_cracker 3.40 0067  02.08.2006

@<TRIPOS>MOLECULE
ASD01816877
  51   54    0    0    0
SMALL
NO_CHARGES


@<TRIPOS>ATOM
   1 C1            -0.0168     1.3889     0.0097 C.ar    
   2 C2             0.0021    -0.0041     0.0020 C.ar    
   3 C3             1.1794    -0.6886    -0.0124 C.ar    
   4 C4             2.3934     0.0157    -0.0201 C.ar    
   5 C5             2.3803     1.4351    -0.0129 C.ar    
   6 C6             1.1408     2.1077     0.0025 C.ar    
   7 C7             3.6293    -0.6585    -0.0345 C.ar    
   8 C8             4.7719     0.0878    -0.0410 C.ar    
   9 C9             4.6903     1.4886    -0.0333 C.ar    
  10 N10            3.5280     2.1114    -0.0194 N.ar    
  11 C11            5.9395     2.2867    -0.0401 C.2     
  12 N12            5.8790     3.6331    -0.0329 N.am    
  13 O13            7.0180     1.7271    -0.0521 O.2     
  14 C14            7.1135     4.4219    -0.0395 C.3     
  15 C15            6.8462     5.7972     0.5797 C.3     
  16 C16            3.6889    -2.1643    -0.0420 C.3     
  17 C17            3.5722    -2.6646    -1.4587 C.ar    
  18 C18            4.7035    -2.8494    -2.2312 C.ar    
  19 C19            2.3293    -2.9507    -2.0019 C.ar    
  20 C20            2.2700    -3.4086    -3.3095 C.ar    
  21 C21            3.4434    -3.5634    -4.0226 C.ar    
  22 N22            4.6092    -3.2868    -3.4715 N.ar    
  23 C23            8.1203     6.6418     0.4969 C.3     
  24 O24            8.5306     6.7501    -0.8677 O.3     
  25 C25            8.8399     5.4989    -1.4849 C.3     
  26 C26            7.5947     4.6083    -1.4818 C.3     
  27 O27            6.4661     5.6390     1.9481 O.3     
  28 F28            1.1014     3.4581     0.0097 F       
  29 C29            3.3909    -4.0608    -5.4442 C.3     
  30 F30            4.5621    -4.7689    -5.7340 F       
  31 F31            2.2853    -4.9031    -5.6030 F       
  32 H32           -0.9642     1.9075     0.0169 H       
  33 H33           -0.9303    -0.5490     0.0080 H       
  34 H34            1.1789    -1.7686    -0.0175 H       
  35 H35            5.7362    -0.3984    -0.0517 H       
  36 H36            5.0180     4.0798    -0.0233 H       
  37 H37            7.8797     3.9047     0.5379 H       
  38 H38            6.0442     6.2932     0.0329 H       
  39 H39            4.6379    -2.4925     0.3822 H       
  40 H40            2.8676    -2.5634     0.5531 H       
  41 H41            5.6759    -2.6328    -1.8141 H       
  42 H42            1.4286    -2.8204    -1.4204 H       
  43 H43            1.3187    -3.6416    -3.7647 H       
  44 H44            7.9238     7.6364     0.8974 H       
  45 H45            8.9105     6.1656     1.0774 H       
  46 H46            9.1618     5.6700    -2.5122 H       
  47 H47            9.6395     5.0077    -0.9303 H       
  48 H48            7.8401     3.6374    -1.9122 H       
  49 H49            6.8078     5.0803    -2.0702 H       
  50 H50            6.2813     6.4717     2.4037 H       
  51 H51            3.3019    -3.2125    -6.1229 H       
@<TRIPOS>BOND
   1    1    2 ar
   2    1    6 ar
   3    1   32 1
   4    2    3 ar
   5    2   33 1
   6    3    4 ar
   7    3   34 1
   8    4    5 ar
   9    4    7 ar
  10    5    6 ar
  11    5   10 ar
  12    6   28 1
  13    7    8 ar
  14    7   16 1
  15    8    9 ar
  16    8   35 1
  17    9   10 ar
  18    9   11 1
  19   11   12 am
  20   11   13 2
  21   12   14 1
  22   12   36 1
  23   14   15 1
  24   14   26 1
  25   14   37 1
  26   15   23 1
  27   15   27 1
  28   15   38 1
  29   16   17 1
  30   16   39 1
  31   16   40 1
  32   17   18 ar
  33   17   19 ar
  34   18   22 ar
  35   18   41 1
  36   19   20 ar
  37   19   42 1
  38   20   21 ar
  39   20   43 1
  40   21   22 ar
  41   21   29 1
  42   23   24 1
  43   23   44 1
  44   23   45 1
  45   24   25 1
  46   25   26 1
  47   25   46 1
  48   25   47 1
  49   26   48 1
  50   26   49 1
  51   27   50 1
  52   29   30 1
  53   29   31 1
  54   29   51 1

#	End of record

