#	Name: ASD01911036
#	Creating user name:	WinNT
#	Creation time:	15. 06. 2019 19:57

#	Modifying user name:	WinNT
#	Modification time:	15. 06. 2019 19:57

#	Program:	/corina/corina34_cracker 3.40 0067  02.08.2006

@<TRIPOS>MOLECULE
ASD01911036
  66   70    0    0    0
SMALL
NO_CHARGES


@<TRIPOS>ATOM
   1 N1            -4.7517    -3.3312     1.0062 N.3     
   2 C2            -3.5024    -2.6301     1.3312 C.3     
   3 C3            -2.6795    -2.4403     0.0526 C.3     
   4 N4            -3.5232    -1.7744    -0.9514 N.am    
   5 C5            -4.8506    -2.3423    -1.2320 C.3     
   6 C6            -5.5880    -2.5360     0.0972 C.3     
   7 C7            -3.0915    -0.6728    -1.5969 C.2     
   8 C8            -3.8995    -0.0921    -2.6876 C.ar    
   9 C9            -4.0113     1.2960    -2.8123 C.ar    
  10 C10           -4.7648     1.8434    -3.8284 C.ar    
  11 C11           -5.4180     1.0216    -4.7349 C.ar    
  12 C12           -5.3129    -0.3742    -4.6201 C.ar    
  13 C13           -4.5469    -0.9279    -3.5971 C.ar    
  14 C14           -5.9867    -1.2249    -5.5544 C.1     
  15 O15           -2.0367    -0.1573    -1.2811 O.2     
  16 C16           -6.5391    -1.9223    -6.3204 C.1     
  17 C17           -7.2128    -2.7730    -7.2547 C.ar    
  18 C18           -7.1080    -4.1621    -7.1402 C.ar    
  19 C19           -7.7582    -4.9767    -8.0417 C.ar    
  20 C20           -8.5168    -4.4193    -9.0630 C.ar    
  21 C21           -8.6240    -3.0396    -9.1810 C.ar    
  22 C22           -7.9822    -2.2169    -8.2808 C.ar    
  23 C23           -5.4469    -3.6647     2.1556 C.ar    
  24 O24           -6.1588     1.5661    -5.7322 O.3     
  25 N25           -6.6021    -4.3047     2.0499 N.ar    
  26 C26           -7.2915    -4.6381     3.1285 C.ar    
  27 C27           -6.7914    -4.3099     4.3788 C.ar    
  28 C28           -5.5801    -3.6404     4.4531 C.ar    
  29 N29           -4.9386    -3.3412     3.3356 N.ar    
  30 C30           -6.2222     2.9925    -5.7887 C.3     
  31 O31           -9.1556    -5.2265    -9.9498 O.3     
  32 C32           -9.9187    -4.5877   -10.9754 C.3     
  33 C33          -10.5502    -5.6341   -11.8571 C.ar    
  34 C34          -11.8046    -6.1288   -11.5529 C.ar    
  35 C35          -12.3839    -7.0886   -12.3617 C.ar    
  36 C36          -11.7089    -7.5534   -13.4749 C.ar    
  37 C37          -10.4548    -7.0580   -13.7796 C.ar    
  38 C38           -9.8774    -6.0951   -12.9732 C.ar    
  39 H39           -3.7335    -1.6563     1.7630 H       
  40 H40           -2.9304    -3.2196     2.0478 H       
  41 H41           -1.8078    -1.8219     0.2666 H       
  42 H42           -2.3592    -3.4116    -0.3243 H       
  43 H43           -5.4143    -1.6591    -1.8673 H       
  44 H44           -4.7390    -3.3042    -1.7324 H       
  45 H45           -6.5286    -3.0572    -0.0812 H       
  46 H46           -5.7901    -1.5635     0.5461 H       
  47 H47           -3.5055     1.9417    -2.1096 H       
  48 H48           -4.8472     2.9164    -3.9188 H       
  49 H49           -4.4616    -2.0004    -3.5034 H       
  50 H50           -6.5180    -4.5964    -6.3466 H       
  51 H51           -7.6774    -6.0501    -7.9542 H       
  52 H52           -9.2147    -2.6108    -9.9770 H       
  53 H53           -8.0661    -1.1442    -8.3733 H       
  54 H54           -8.2328    -5.1595     3.0360 H       
  55 H55           -7.3340    -4.5699     5.2757 H       
  56 H56           -5.1630    -3.3698     5.4118 H       
  57 H57           -6.8450     3.2955    -6.6304 H       
  58 H58           -6.6522     3.3741    -4.8627 H       
  59 H59           -5.2177     3.3961    -5.9162 H       
  60 H60          -10.6986    -3.9767   -10.5209 H       
  61 H61           -9.2640    -3.9547   -11.5744 H       
  62 H62          -12.3320    -5.7656   -10.6832 H       
  63 H63          -13.3637    -7.4756   -12.1236 H       
  64 H64          -12.1611    -8.3038   -14.1064 H       
  65 H65           -9.9273    -7.4214   -14.6491 H       
  66 H66           -8.8976    -5.7080   -13.2113 H       
@<TRIPOS>BOND
   1    1    2 1
   2    1   23 1
   3    1    6 1
   4    2    3 1
   5    2   39 1
   6    2   40 1
   7    3    4 1
   8    3   41 1
   9    3   42 1
  10    4    5 1
  11    4    7 am
  12    5    6 1
  13    5   43 1
  14    5   44 1
  15    6   45 1
  16    6   46 1
  17    7    8 1
  18    7   15 2
  19    8    9 ar
  20    8   13 ar
  21    9   10 ar
  22    9   47 1
  23   10   11 ar
  24   10   48 1
  25   11   12 ar
  26   11   24 1
  27   12   13 ar
  28   12   14 1
  29   13   49 1
  30   14   16 3
  31   16   17 1
  32   17   18 ar
  33   17   22 ar
  34   18   19 ar
  35   18   50 1
  36   19   20 ar
  37   19   51 1
  38   20   21 ar
  39   20   31 1
  40   21   22 ar
  41   21   52 1
  42   22   53 1
  43   23   25 ar
  44   23   29 ar
  45   24   30 1
  46   25   26 ar
  47   26   27 ar
  48   26   54 1
  49   27   28 ar
  50   27   55 1
  51   28   29 ar
  52   28   56 1
  53   30   57 1
  54   30   58 1
  55   30   59 1
  56   31   32 1
  57   32   33 1
  58   32   60 1
  59   32   61 1
  60   33   34 ar
  61   33   38 ar
  62   34   35 ar
  63   34   62 1
  64   35   36 ar
  65   35   63 1
  66   36   37 ar
  67   36   64 1
  68   37   38 ar
  69   37   65 1
  70   38   66 1

#	End of record

