#	Name: ASD00071045
#	Creating user name:	WinNT
#	Creation time:	15. 06. 2019 18:30

#	Modifying user name:	WinNT
#	Modification time:	15. 06. 2019 18:30

#	Program:	/corina/corina34_cracker 3.40 0067  02.08.2006

@<TRIPOS>MOLECULE
ASD00071045
  35   37    0    0    0
SMALL
NO_CHARGES


@<TRIPOS>ATOM
   1 N1            -0.0158     1.3128     0.0093 N.ar    
   2 C2             0.0021    -0.0041     0.0020 C.ar    
   3 C3             1.2093    -0.7193    -0.0129 C.ar    
   4 C4             2.3952    -0.0508    -0.0206 C.ar    
   5 C5             2.3698     1.3607    -0.0132 C.ar    
   6 N6             3.5005     2.0695    -0.0206 N.ar    
   7 C7             3.4832     3.3808    -0.0142 C.ar    
   8 C8             2.2876     4.0949     0.0004 C.ar    
   9 C9             1.0950     3.4290     0.0086 C.ar    
  10 C10            1.1178     2.0210     0.0022 C.ar    
  11 N11           -1.1982    -0.6990     0.0098 N.pl3   
  12 C12            1.1930    -2.2262    -0.0199 C.3     
  13 C13            1.0502    -2.7204    -1.4364 C.ar    
  14 C14            2.1732    -2.8616    -2.2390 C.ar    
  15 C15            2.0385    -3.3167    -3.5424 C.ar    
  16 C16            0.7870    -3.6283    -4.0382 C.ar    
  17 C17           -0.3303    -3.4864    -3.2366 C.ar    
  18 C18           -0.1979    -3.0386    -1.9349 C.ar    
  19 O19            3.4030    -2.5540    -1.7492 O.3     
  20 C20            4.5139    -2.7236    -2.6319 C.3     
  21 H21            3.3326    -0.5871    -0.0317 H       
  22 H22            4.4189     3.9200    -0.0202 H       
  23 H23            2.3034     5.1748     0.0057 H       
  24 H24            0.1593     3.9681     0.0196 H       
  25 H25           -2.0387    -0.2150     0.0204 H       
  26 H26           -1.1971    -1.6689     0.0045 H       
  27 H27            2.1245    -2.6016     0.4038 H       
  28 H28            0.3530    -2.5832     0.5759 H       
  29 H29            2.9110    -3.4271    -4.1692 H       
  30 H30            0.6816    -3.9827    -5.0529 H       
  31 H31           -1.3077    -3.7298    -3.6262 H       
  32 H32           -1.0718    -2.9332    -1.3091 H       
  33 H33            4.5750    -3.7665    -2.9429 H       
  34 H34            4.3812    -2.0901    -3.5089 H       
  35 H35            5.4330    -2.4436    -2.1171 H       
@<TRIPOS>BOND
   1    1    2 ar
   2    1   10 ar
   3    2    3 ar
   4    2   11 1
   5    3    4 ar
   6    3   12 1
   7    4    5 ar
   8    4   21 1
   9    5    6 ar
  10    5   10 ar
  11    6    7 ar
  12    7    8 ar
  13    7   22 1
  14    8    9 ar
  15    8   23 1
  16    9   10 ar
  17    9   24 1
  18   11   25 1
  19   11   26 1
  20   12   13 1
  21   12   27 1
  22   12   28 1
  23   13   14 ar
  24   13   18 ar
  25   14   15 ar
  26   14   19 1
  27   15   16 ar
  28   15   29 1
  29   16   17 ar
  30   16   30 1
  31   17   18 ar
  32   17   31 1
  33   18   32 1
  34   19   20 1
  35   20   33 1
  36   20   34 1
  37   20   35 1

#	End of record

