#	Name: ASD09740675
#	Creating user name:	WinNT
#	Creation time:	15. 06. 2019 21:23

#	Modifying user name:	WinNT
#	Modification time:	15. 06. 2019 21:23

#	Program:	/corina/corina34_cracker 3.40 0067  02.08.2006

@<TRIPOS>MOLECULE
ASD09740675
  53   56    0    0    0
SMALL
NO_CHARGES


@<TRIPOS>ATOM
   1 C1            -0.0058     1.5132     0.0186 C.2     
   2 C2             0.0225     0.0064     0.0193 C.3     
   3 O3             1.0328     2.1392     0.0051 O.2     
   4 N4            -1.1854     2.1650     0.0274 N.am    
   5 O5             1.3783    -0.4445     0.0025 O.3     
   6 C6            -1.2130     3.6298     0.0268 C.3     
   7 C7            -2.5395     4.1402    -0.5750 C.3     
   8 C8            -3.4285     4.3032     0.6763 C.3     
   9 C9            -2.4642     4.5422     1.8181 C.ar    
  10 C10           -2.6852     5.0624     3.0970 C.ar    
  11 C11           -1.6214     5.1886     3.9898 C.ar    
  12 C12           -0.3548     4.7989     3.6057 C.ar    
  13 C13           -0.1414     4.2857     2.3402 C.ar    
  14 C14           -1.1933     4.1562     1.4462 C.ar    
  15 S15           -4.5018     6.1517     5.0677 S.3     
  16 C16           -4.0446     5.4785     3.5019 C.2     
  17 N17           -5.1201     5.4135     2.7645 N.2     
  18 N18           -6.2029     5.8141     3.2717 N.2     
  19 C19           -6.1679     6.2644     4.4974 C.2     
  20 C20           -7.3192     6.7776     5.2692 C.ar    
  21 C21           -8.5860     6.8096     4.6917 C.ar    
  22 C22           -9.6682     7.2947     5.4242 C.ar    
  23 C23           -9.4730     7.7471     6.7380 C.ar    
  24 C24           -8.2065     7.7106     7.3032 C.ar    
  25 C25           -7.1375     7.2256     6.5808 C.ar    
  26 O26          -10.5226     8.2206     7.4553 O.3     
  27 C27          -10.2765     8.5524     8.8233 C.3     
  28 C28           -9.7261     9.9773     8.9115 C.3     
  29 C29          -11.5835     8.4607     9.6135 C.3     
  30 C30          -10.9742     7.3316     4.8380 C.1     
  31 N31          -12.0102     7.3609     4.3730 N.1     
  32 H32           -0.4732    -0.3659     0.9158 H       
  33 H33           -0.4956    -0.3671    -0.8640 H       
  34 H34           -2.0162     1.6643     0.0342 H       
  35 H35            1.4728    -1.4069     0.0020 H       
  36 H36           -0.3662     4.0245    -0.5348 H       
  37 H37           -2.3950     5.0978    -1.0752 H       
  38 H38           -2.9635     3.4047    -1.2585 H       
  39 H39           -4.0945     5.1580     0.5584 H       
  40 H40           -4.0049     3.3949     0.8517 H       
  41 H41           -1.7884     5.5903     4.9783 H       
  42 H42            0.4712     4.8954     4.2948 H       
  43 H43            0.8525     3.9832     2.0454 H       
  44 H44           -8.7294     6.4602     3.6798 H       
  45 H45           -8.0585     8.0593     8.3146 H       
  46 H46           -6.1550     7.1957     7.0282 H       
  47 H47           -9.5497     7.8557     9.2411 H       
  48 H48          -10.4529    10.6740     8.4937 H       
  49 H49           -9.5384    10.2304     9.9549 H       
  50 H50           -8.7950    10.0426     8.3486 H       
  51 H51          -11.9755     7.4456     9.5507 H       
  52 H52          -11.3957     8.7138    10.6569 H       
  53 H53          -12.3102     9.1574     9.1957 H       
@<TRIPOS>BOND
   1    1    2 1
   2    1    3 2
   3    1    4 am
   4    2    5 1
   5    2   32 1
   6    2   33 1
   7    4    6 1
   8    4   34 1
   9    5   35 1
  10    6    7 1
  11    6   14 1
  12    6   36 1
  13    7    8 1
  14    7   37 1
  15    7   38 1
  16    8    9 1
  17    8   39 1
  18    8   40 1
  19    9   10 ar
  20    9   14 ar
  21   10   11 ar
  22   10   16 1
  23   11   12 ar
  24   11   41 1
  25   12   13 ar
  26   12   42 1
  27   13   14 ar
  28   13   43 1
  29   15   16 1
  30   15   19 1
  31   16   17 2
  32   17   18 1
  33   18   19 2
  34   19   20 1
  35   20   21 ar
  36   20   25 ar
  37   21   22 ar
  38   21   44 1
  39   22   23 ar
  40   22   30 1
  41   23   24 ar
  42   23   26 1
  43   24   25 ar
  44   24   45 1
  45   25   46 1
  46   26   27 1
  47   27   28 1
  48   27   29 1
  49   27   47 1
  50   28   48 1
  51   28   49 1
  52   28   50 1
  53   29   51 1
  54   29   52 1
  55   29   53 1
  56   30   31 3

#	End of record

