#	Name: ASD04880180
#	Creating user name:	WinNT
#	Creation time:	15. 06. 2019 20:52

#	Modifying user name:	WinNT
#	Modification time:	15. 06. 2019 20:52

#	Program:	/corina/corina34_cracker 3.40 0067  02.08.2006

@<TRIPOS>MOLECULE
ASD04880180
  38   40    0    0    0
SMALL
NO_CHARGES


@<TRIPOS>ATOM
   1 C1            -0.0144     1.2132     0.0087 C.2     
   2 O2             0.0021    -0.0041     0.0020 O.2     
   3 C3             1.2445     1.9631     0.0007 C.2     
   4 N4            -1.1907     1.8712     0.0179 N.am    
   5 N5            -1.3446     3.2560     0.0256 N.2     
   6 C6            -2.5717     3.6491     0.0337 C.2     
   7 C7            -3.4875     2.4460     0.0322 C.3     
   8 C8            -2.5220     1.2444     0.0149 C.3     
   9 C9            -3.0145     5.0552     0.0430 C.ar    
  10 C10           -2.0716     6.0864     0.0430 C.ar    
  11 C11           -2.4923     7.4031     0.0513 C.ar    
  12 C12           -3.8535     7.6996     0.0601 C.ar    
  13 C13           -4.7900     6.6761     0.0601 C.ar    
  14 C14           -4.3780     5.3602     0.0460 C.ar    
  15 O15           -4.2652     8.9952     0.0691 O.3     
  16 C16           -5.6751     9.2279     0.0778 C.3     
  17 O17           -1.5773     8.4093     0.0514 O.3     
  18 C18           -0.1989     8.0326     0.0426 C.3     
  19 C19            2.4954     1.4124    -0.0142 C.2     
  20 C20            3.5016     2.3491    -0.0187 C.2     
  21 C21            3.0916     3.6229    -0.0080 C.2     
  22 S22            1.3880     3.7156     0.0011 S.3     
  23 H23           -4.1036     2.4334     0.9313 H       
  24 H24           -4.1125     2.4424    -0.8608 H       
  25 H25           -2.6637     0.6490    -0.8871 H       
  26 H26           -2.6595     0.6316     0.9058 H       
  27 H27           -1.0166     5.8553     0.0370 H       
  28 H28           -5.8442     6.9105     0.0672 H       
  29 H29           -5.1092     4.5653     0.0415 H       
  30 H30           -5.8662    10.3010     0.0845 H       
  31 H31           -6.1219     8.7848    -0.8122 H       
  32 H32           -6.1125     8.7754     0.9677 H       
  33 H33            0.4225     8.9282     0.0436 H       
  34 H34            0.0206     7.4370     0.9287 H       
  35 H35            0.0116     7.4453    -0.8512 H       
  36 H36            2.6754     0.3475    -0.0213 H       
  37 H37            4.5467     2.0769    -0.0298 H       
  38 H38            3.7510     4.4782    -0.0097 H       
@<TRIPOS>BOND
   1    1    2 2
   2    1    3 1
   3    1    4 am
   4    3   19 2
   5    3   22 1
   6    4    5 1
   7    4    8 1
   8    5    6 2
   9    6    7 1
  10    6    9 1
  11    7    8 1
  12    7   23 1
  13    7   24 1
  14    8   25 1
  15    8   26 1
  16    9   10 ar
  17    9   14 ar
  18   10   11 ar
  19   10   27 1
  20   11   12 ar
  21   11   17 1
  22   12   13 ar
  23   12   15 1
  24   13   14 ar
  25   13   28 1
  26   14   29 1
  27   15   16 1
  28   16   30 1
  29   16   31 1
  30   16   32 1
  31   17   18 1
  32   18   33 1
  33   18   34 1
  34   18   35 1
  35   19   20 1
  36   19   36 1
  37   20   21 2
  38   20   37 1
  39   21   22 1
  40   21   38 1

#	End of record

