#	Name: ASD02408380
#	Creating user name:	WinNT
#	Creation time:	15. 06. 2019 20:21

#	Modifying user name:	WinNT
#	Modification time:	15. 06. 2019 20:21

#	Program:	/corina/corina34_cracker 3.40 0067  02.08.2006

@<TRIPOS>MOLECULE
ASD02408380
  22   23    0    0    0
SMALL
NO_CHARGES


@<TRIPOS>ATOM
   1 C1            -0.0171     1.4102     0.0098 C.2     
   2 C2             0.0021    -0.0041     0.0020 C.2     
   3 C3             1.3085     1.8357    -0.0006 C.2     
   4 N4             2.0817     0.7262    -0.0139 N.pl3   
   5 N5             1.2457    -0.3956    -0.0120 N.2     
   6 C6             3.4827     0.7040    -0.0278 C.ar    
   7 C7             4.1691    -0.2949     0.6496 C.ar    
   8 C8             5.5503    -0.3157     0.6345 C.ar    
   9 C9             6.2506     0.6571    -0.0539 C.ar    
  10 C10            5.5697     1.6558    -0.7307 C.ar    
  11 C11            4.1867     1.6774    -0.7238 C.ar    
  12 N12            1.7508     3.1446     0.0022 N.pl3   
  13 F13            6.2566     2.6056    -1.4024 F       
  14 C14           -1.1798     2.2462     0.0201 C.1     
  15 N15           -2.1021     2.9093     0.0282 N.1     
  16 H16           -0.8644    -0.6488     0.0074 H       
  17 H17            3.6233    -1.0552     1.1885 H       
  18 H18            6.0837    -1.0929     1.1616 H       
  19 H19            7.3304     0.6388    -0.0638 H       
  20 H20            3.6554     2.4557    -1.2513 H       
  21 H21            1.1102     3.8729     0.0126 H       
  22 H22            2.7018     3.3352    -0.0062 H       
@<TRIPOS>BOND
   1    1    2 1
   2    1    3 2
   3    1   14 1
   4    2    5 2
   5    2   16 1
   6    3    4 1
   7    3   12 1
   8    4    5 1
   9    4    6 1
  10    6    7 ar
  11    6   11 ar
  12    7    8 ar
  13    7   17 1
  14    8    9 ar
  15    8   18 1
  16    9   10 ar
  17    9   19 1
  18   10   11 ar
  19   10   13 1
  20   11   20 1
  21   12   21 1
  22   12   22 1
  23   14   15 3

#	End of record

