#	Name: ASD01708037
#	Creating user name:	WinNT
#	Creation time:	15. 06. 2019 19:22

#	Modifying user name:	WinNT
#	Modification time:	15. 06. 2019 19:22

#	Program:	/corina/corina34_cracker 3.40 0067  02.08.2006

@<TRIPOS>MOLECULE
ASD01708037
  59   62    0    0    0
SMALL
NO_CHARGES


@<TRIPOS>ATOM
   1 C1            -0.0162     1.3436     0.0094 C.2     
   2 N2             0.0015    -0.0041     0.0021 N.am    
   3 O3             1.0284     1.9651     0.0202 O.2     
   4 C4             1.2630    -0.7529    -0.1235 C.3     
   5 C5            -1.2344    -0.7841     0.1251 C.3     
   6 C6            -1.0256    -1.9178     1.0984 C.ar    
   7 C7             0.2234    -2.2661     1.5656 C.ar    
   8 C8             1.4732    -1.5379     1.1701 C.3     
   9 C9            -2.1485    -2.6190     1.5213 C.ar    
  10 C10           -2.0313    -3.6712     2.4031 C.ar    
  11 C11           -0.7678    -4.0367     2.8758 C.ar    
  12 C12            0.3548    -3.3277     2.4510 C.ar    
  13 Cl13           1.9280    -3.7753     3.0326 Cl      
  14 Cl14          -3.4433    -4.5366     2.9239 Cl      
  15 C15           -0.6230    -5.1651     3.8178 C.2     
  16 N16           -0.6808    -4.9455     5.1463 N.am    
  17 O17           -0.4518    -6.2919     3.3948 O.2     
  18 C18           -0.5372    -6.0647     6.0806 C.3     
  19 C19           -1.8754    -6.7289     6.2782 C.2     
  20 O20           -1.9856    -7.7855     7.0987 O.3     
  21 O21           -2.8492    -6.3103     5.6981 O.2     
  22 C22           -1.3056     2.0657    -0.0018 C.ar    
  23 C23           -1.4403     3.2701     0.6912 C.ar    
  24 C24           -2.6458     3.9396     0.6767 C.ar    
  25 C25           -3.7216     3.4194    -0.0237 C.ar    
  26 C26           -3.5940     2.2249    -0.7132 C.ar    
  27 C27           -2.3920     1.5490    -0.7103 C.ar    
  28 S28            5.2546    -5.3323     7.2121 S.o2    
  29 C29            5.7414    -5.0435     8.9355 C.3     
  30 O30            5.9010    -4.4064     6.3495 O.2     
  31 O31            5.2493    -6.7234     6.9218 O.2     
  32 Cl32          -5.2362     4.2677    -0.0369 Cl      
  33 C33           -0.0226    -5.5445     7.4243 C.3     
  34 C34            1.3678    -4.9904     7.2493 C.2     
  35 O35            2.5112    -5.6832     7.3772 O.3     
  36 C36            1.6741    -3.7194     6.9328 C.2     
  37 C37            3.0844    -3.6408     6.8722 C.2     
  38 C38            3.5555    -4.8694     7.1516 C.2     
  39 H39            1.2011    -1.4409    -0.9666 H       
  40 H40            2.0905    -0.0592    -0.2726 H       
  41 H41           -2.0358    -0.1393     0.4860 H       
  42 H42           -1.5066    -1.1885    -0.8498 H       
  43 H43            2.2758    -2.2598     1.0184 H       
  44 H44            1.7558    -0.8515     1.9682 H       
  45 H45           -3.1241    -2.3358     1.1548 H       
  46 H46           -0.8174    -4.0464     5.4838 H       
  47 H47            0.1709    -6.7876     5.6755 H       
  48 H48           -2.8643    -8.1780     7.1934 H       
  49 H49           -0.6023     3.6765     1.2380 H       
  50 H50           -2.7513     4.8712     1.2127 H       
  51 H51           -4.4364     1.8240    -1.2572 H       
  52 H52           -2.2935     0.6179    -1.2486 H       
  53 H53            5.5972    -3.9917     9.1824 H       
  54 H54            5.1283    -5.6587     9.5942 H       
  55 H55            6.7911    -5.3066     9.0655 H       
  56 H56           -0.6843    -4.7579     7.7868 H       
  57 H57           -0.0001    -6.3614     8.1456 H       
  58 H58            0.9765    -2.9138     6.7578 H       
  59 H59            3.6709    -2.7636     6.6422 H       
@<TRIPOS>BOND
   1    1    2 am
   2    1    3 2
   3    1   22 1
   4    2    4 1
   5    2    5 1
   6    4    8 1
   7    4   39 1
   8    4   40 1
   9    5    6 1
  10    5   41 1
  11    5   42 1
  12    6    7 ar
  13    6    9 ar
  14    7    8 1
  15    7   12 ar
  16    8   43 1
  17    8   44 1
  18    9   10 ar
  19    9   45 1
  20   10   11 ar
  21   10   14 1
  22   11   12 ar
  23   11   15 1
  24   12   13 1
  25   15   16 am
  26   15   17 2
  27   16   18 1
  28   16   46 1
  29   18   19 1
  30   18   33 1
  31   18   47 1
  32   19   20 1
  33   19   21 2
  34   20   48 1
  35   22   23 ar
  36   22   27 ar
  37   23   24 ar
  38   23   49 1
  39   24   25 ar
  40   24   50 1
  41   25   26 ar
  42   25   32 1
  43   26   27 ar
  44   26   51 1
  45   27   52 1
  46   28   30 2
  47   28   31 2
  48   28   29 1
  49   28   38 1
  50   29   53 1
  51   29   54 1
  52   29   55 1
  53   33   34 1
  54   33   56 1
  55   33   57 1
  56   34   35 1
  57   34   36 2
  58   35   38 1
  59   36   37 1
  60   36   58 1
  61   37   38 2
  62   37   59 1

#	End of record

