#	Name: ASD02038320
#	Creating user name:	WinNT
#	Creation time:	15. 06. 2019 20:16

#	Modifying user name:	WinNT
#	Modification time:	15. 06. 2019 20:16

#	Program:	/corina/corina34_cracker 3.40 0067  02.08.2006

@<TRIPOS>MOLECULE
ASD02038320
  58   61    0    0    0
SMALL
NO_CHARGES


@<TRIPOS>ATOM
   1 C1            -0.0187     1.5263     0.0104 C.3     
   2 C2             0.0021    -0.0041     0.0020 C.3     
   3 N3             0.7238    -0.4751    -1.1883 N.3     
   4 C4             0.7003    -1.9415    -1.2723 C.3     
   5 C5             1.6601    -2.4049    -2.3699 C.3     
   6 C6             1.6357    -3.9322    -2.4573 C.3     
   7 O7             2.6158    -4.3711    -3.4001 O.3     
   8 C8             2.7249    -5.7118    -3.5982 C.ar    
   9 C9             3.6526    -6.2001    -4.4959 C.ar    
  10 C10            1.9036    -6.5861    -2.8899 C.ar    
  11 C11            2.0007    -7.9471    -3.0769 C.ar    
  12 C12            2.9254    -8.4601    -3.9808 C.ar    
  13 C13            3.7604    -7.5806    -4.6950 C.ar    
  14 C14            2.1034     0.0310    -1.1988 C.3     
  15 C15            2.0826     1.5614    -1.1904 C.3     
  16 N16            1.3610     2.0324    -0.0000 N.3     
  17 C17            1.3832     3.4252     0.0797 C.ar    
  18 C18            0.7531     4.0698     1.1384 C.ar    
  19 C19            0.7730     5.4453     1.2196 C.ar    
  20 C20            1.4271     6.1917     0.2378 C.ar    
  21 C21            2.0593     5.5416    -0.8237 C.ar    
  22 C22            2.0404     4.1657    -0.8967 C.ar    
  23 N23            3.0377    -9.8207    -4.1827 N.am    
  24 C24            3.9305   -10.3191    -5.0556 C.2     
  25 C25            4.7870    -9.4796    -5.7995 C.2     
  26 C26            4.7288    -8.1339    -5.6435 C.2     
  27 O27            4.0023   -11.5263    -5.2081 O.2     
  28 O28            1.2550    -1.8495    -3.6227 O.3     
  29 C29            1.4492     7.6212     0.3191 C.1     
  30 C30            1.4673     8.7931     0.3858 C.1     
  31 C31            1.4900    10.2626     0.4694 C.3     
  32 H32           -0.5453     1.8877    -0.8728 H       
  33 H33           -0.5283     1.8781     0.9074 H       
  34 H34            0.5048    -0.3659     0.8989 H       
  35 H35           -1.0203    -0.3815    -0.0195 H       
  36 H36            1.0093    -2.3651    -0.3167 H       
  37 H37           -0.3100    -2.2758    -1.5082 H       
  38 H38            2.6704    -2.0706    -2.1340 H       
  39 H39            1.8583    -4.3558    -1.4780 H       
  40 H40            0.6481    -4.2619    -2.7798 H       
  41 H41            4.2910    -5.5208    -5.0413 H       
  42 H42            1.1841    -6.1929    -2.1870 H       
  43 H43            1.3595    -8.6158    -2.5219 H       
  44 H44            2.6300    -0.3304    -0.3155 H       
  45 H45            2.6130    -0.3208    -2.0958 H       
  46 H46            3.1050     1.9388    -1.1689 H       
  47 H47            1.5799     1.9232    -2.0873 H       
  48 H48            0.2472     3.4918     1.8977 H       
  49 H49            0.2828     5.9454     2.0418 H       
  50 H50            2.5661     6.1164    -1.5848 H       
  51 H51            2.5293     3.6622    -1.7176 H       
  52 H52            2.4643   -10.4263    -3.6874 H       
  53 H53            5.4940    -9.9108    -6.4928 H       
  54 H54            5.3804    -7.4842    -6.2089 H       
  55 H55            0.3635    -2.1054    -3.8965 H       
  56 H56            2.0428    10.6663    -0.3789 H       
  57 H57            0.4688    10.6433     0.4519 H       
  58 H58            1.9752    10.5663     1.3970 H       
@<TRIPOS>BOND
   1    1    2 1
   2    1   16 1
   3    1   32 1
   4    1   33 1
   5    2    3 1
   6    2   34 1
   7    2   35 1
   8    3    4 1
   9    3   14 1
  10    4    5 1
  11    4   36 1
  12    4   37 1
  13    5    6 1
  14    5   28 1
  15    5   38 1
  16    6    7 1
  17    6   39 1
  18    6   40 1
  19    7    8 1
  20    8    9 ar
  21    8   10 ar
  22    9   13 ar
  23    9   41 1
  24   10   11 ar
  25   10   42 1
  26   11   12 ar
  27   11   43 1
  28   12   13 ar
  29   12   23 1
  30   13   26 1
  31   14   15 1
  32   14   44 1
  33   14   45 1
  34   15   16 1
  35   15   46 1
  36   15   47 1
  37   16   17 1
  38   17   18 ar
  39   17   22 ar
  40   18   19 ar
  41   18   48 1
  42   19   20 ar
  43   19   49 1
  44   20   21 ar
  45   20   29 1
  46   21   22 ar
  47   21   50 1
  48   22   51 1
  49   23   24 am
  50   23   52 1
  51   24   25 1
  52   24   27 2
  53   25   26 2
  54   25   53 1
  55   26   54 1
  56   28   55 1
  57   29   30 3
  58   30   31 1
  59   31   56 1
  60   31   57 1
  61   31   58 1

#	End of record

