#	Name: ASD02198778
#	Creating user name:	WinNT
#	Creation time:	15. 06. 2019 20:20

#	Modifying user name:	WinNT
#	Modification time:	15. 06. 2019 20:20

#	Program:	/corina/corina34_cracker 3.40 0067  02.08.2006

@<TRIPOS>MOLECULE
ASD02198778
  58   62    0    0    0
SMALL
NO_CHARGES


@<TRIPOS>ATOM
   1 C1             0.0311     1.4887    -0.0596 C.2     
   2 C2             0.0256     0.1574     0.2029 C.2     
   3 N3             1.1828    -0.5197     0.3755 N.pl3   
   4 N4             2.3381     0.0314     0.3057 N.2     
   5 C5             2.4861     1.3154     0.0573 C.2     
   6 C6             1.2847     2.1401    -0.1459 C.2     
   7 C7             1.1163    -1.8913     0.6444 C.ar    
   8 C8             1.7419    -2.4115     1.7768 C.ar    
   9 C9             1.6744    -3.7693     2.0402 C.ar    
  10 C10            0.9842    -4.6094     1.1766 C.ar    
  11 C11            0.3612    -4.0884     0.0482 C.ar    
  12 C12            0.4223    -2.7348    -0.2133 C.ar    
  13 C13            3.8329     1.9173    -0.0155 C.2     
  14 N14            4.3494     2.6274    -1.0627 N.pl3   
  15 N15            5.6503     3.0133    -0.7162 N.2     
  16 C16            5.9178     2.5621     0.4834 C.2     
  17 C17            4.8030     1.8735     0.9618 C.2     
  18 C18            3.6952     2.9168    -2.2669 C.ar    
  19 C19            3.8006     4.1821    -2.8294 C.ar    
  20 C20            3.1548     4.4642    -4.0171 C.ar    
  21 C21            2.4038     3.4883    -4.6462 C.ar    
  22 C22            2.2965     2.2275    -4.0885 C.ar    
  23 C23            2.9446     1.9374    -2.9039 C.ar    
  24 O24            1.3657     3.3370    -0.3797 O.2     
  25 N25            0.9160    -5.9792     1.4415 N.3     
  26 C26            0.0940    -6.6320     0.5085 C.3     
  27 C27           -0.1590    -8.1022     0.9019 C.3     
  28 O28            0.9793    -8.8657     0.5876 O.3     
  29 C29            1.9416    -9.0587     1.6425 C.3     
  30 C30            2.1864    -7.7801     2.4580 C.3     
  31 C31            2.2668    -6.5604     1.5732 C.3     
  32 O32            2.4173    -1.5874     2.6203 O.3     
  33 C33            3.0336    -2.1895     3.7603 C.3     
  34 H34           -0.8910     2.0326    -0.2025 H       
  35 H35           -0.9153    -0.3679     0.2752 H       
  36 H36            2.1585    -4.1746     2.9164 H       
  37 H37           -0.1752    -4.7434    -0.6223 H       
  38 H38           -0.0627    -2.3323    -1.0903 H       
  39 H39            6.8467     2.7031     1.0161 H       
  40 H40            4.7180     1.3881     1.9227 H       
  41 H41            4.3867     4.9449    -2.3384 H       
  42 H42            3.2360     5.4482    -4.4549 H       
  43 H43            1.8997     3.7113    -5.5750 H       
  44 H44            1.7090     1.4675    -4.5820 H       
  45 H45            2.8608     0.9524    -2.4689 H       
  46 H46           -0.8612    -6.1102     0.4498 H       
  47 H47            0.5740    -6.6033    -0.4697 H       
  48 H48           -0.3554    -8.1643     1.9722 H       
  49 H49           -1.0178    -8.4844     0.3500 H       
  50 H50            1.5794    -9.8394     2.3115 H       
  51 H51            2.8852    -9.3831     1.2038 H       
  52 H52            1.3704    -7.6502     3.1690 H       
  53 H53            3.1220    -7.8827     3.0077 H       
  54 H54            2.6390    -6.8465     0.5894 H       
  55 H55            2.9379    -5.8276     2.0211 H       
  56 H56            3.7611    -2.9312     3.4307 H       
  57 H57            3.5377    -1.4225     4.3484 H       
  58 H58            2.2722    -2.6741     4.3715 H       
@<TRIPOS>BOND
   1    1    2 2
   2    1    6 1
   3    1   34 1
   4    2    3 1
   5    2   35 1
   6    3    4 1
   7    3    7 1
   8    4    5 2
   9    5    6 1
  10    5   13 1
  11    6   24 2
  12    7    8 ar
  13    7   12 ar
  14    8    9 ar
  15    8   32 1
  16    9   10 ar
  17    9   36 1
  18   10   11 ar
  19   10   25 1
  20   11   12 ar
  21   11   37 1
  22   12   38 1
  23   13   14 1
  24   13   17 2
  25   14   15 1
  26   14   18 1
  27   15   16 2
  28   16   17 1
  29   16   39 1
  30   17   40 1
  31   18   19 ar
  32   18   23 ar
  33   19   20 ar
  34   19   41 1
  35   20   21 ar
  36   20   42 1
  37   21   22 ar
  38   21   43 1
  39   22   23 ar
  40   22   44 1
  41   23   45 1
  42   25   26 1
  43   25   31 1
  44   26   27 1
  45   26   46 1
  46   26   47 1
  47   27   28 1
  48   27   48 1
  49   27   49 1
  50   28   29 1
  51   29   30 1
  52   29   50 1
  53   29   51 1
  54   30   31 1
  55   30   52 1
  56   30   53 1
  57   31   54 1
  58   31   55 1
  59   32   33 1
  60   33   56 1
  61   33   57 1
  62   33   58 1

#	End of record

