#	Name: ASD04230170
#	Creating user name:	WinNT
#	Creation time:	15. 06. 2019 20:48

#	Modifying user name:	WinNT
#	Modification time:	15. 06. 2019 20:48

#	Program:	/corina/corina34_cracker 3.40 0067  02.08.2006

@<TRIPOS>MOLECULE
ASD04230170
  57   61    0    0    0
SMALL
NO_CHARGES


@<TRIPOS>ATOM
   1 C1            -0.0186     1.4661     0.1014 C.2     
   2 C2             0.0013    -0.0046     0.0944 C.ar    
   3 C3            -1.2172    -0.7150     0.0562 C.ar    
   4 C4            -2.4502    -0.0226     0.0240 C.ar    
   5 C5            -2.4612     1.4378     0.0304 C.2     
   6 C6            -1.2591     2.1504     0.0753 C.2     
   7 C7             1.2025    -0.7069     0.1253 C.ar    
   8 C8             1.2023    -2.0923     0.1181 C.ar    
   9 C9             0.0227    -2.8032     0.0810 C.ar    
  10 C10           -1.2039    -2.1273     0.0497 C.ar    
  11 C11           -2.4326    -2.8297     0.0107 C.ar    
  12 C12           -3.6294    -2.1266    -0.0200 C.ar    
  13 C13           -3.6456    -0.7474    -0.0141 C.ar    
  14 O14            1.0271     2.0934     0.1346 O.2     
  15 N15           -2.4406    -4.2100     0.0027 N.3     
  16 C16           -1.8772    -4.7309    -1.2450 C.3     
  17 C17           -1.4879    -6.2023    -1.0660 C.3     
  18 S18           -2.9896    -7.1544    -0.6827 S.3     
  19 C19           -3.6984    -6.1997     0.6939 C.3     
  20 C20           -3.7835    -4.7287     0.2726 C.3     
  21 C21           -1.2813     3.5823     0.0811 C.1     
  22 N22           -1.2989     4.7181     0.0857 N.1     
  23 N23           -3.6572     2.1137    -0.0013 N.3     
  24 C24           -3.8128     2.9643     1.1863 C.3     
  25 C25           -5.1529     3.6990     1.1154 C.3     
  26 C26           -5.3149     4.5848     2.3523 C.3     
  27 C27           -6.6350     5.3085     2.2825 C.ar    
  28 C28           -7.7674     4.7350     2.8298 C.ar    
  29 C29           -8.9782     5.3989     2.7657 C.ar    
  30 C30           -9.0566     6.6363     2.1547 C.ar    
  31 C31           -7.9239     7.2102     1.6081 C.ar    
  32 C32           -6.7122     6.5484     1.6761 C.ar    
  33 H33            2.1388    -0.1695     0.1546 H       
  34 H34            2.1423    -2.6237     0.1417 H       
  35 H35            0.0437    -3.8830     0.0756 H       
  36 H36           -4.5632    -2.6685    -0.0500 H       
  37 H37           -4.5894    -0.2228    -0.0384 H       
  38 H38           -2.6182    -4.6465    -2.0399 H       
  39 H39           -0.9931    -4.1523    -1.5126 H       
  40 H40           -1.0414    -6.5776    -1.9868 H       
  41 H41           -0.7759    -6.2955    -0.2459 H       
  42 H42           -4.6964    -6.5733     0.9230 H       
  43 H43           -3.0590    -6.2929     1.5716 H       
  44 H44           -4.2416    -4.1485     1.0736 H       
  45 H45           -4.3920    -4.6444    -0.6278 H       
  46 H46           -3.7440     2.6556    -0.8480 H       
  47 H47           -3.7849     2.3450     2.0829 H       
  48 H48           -3.0013     3.6912     1.2215 H       
  49 H49           -5.1808     4.3183     0.2188 H       
  50 H50           -5.9644     2.9721     1.0803 H       
  51 H51           -5.2871     3.9656     3.2489 H       
  52 H52           -4.5035     5.3117     2.3875 H       
  53 H53           -7.7062     3.7682     3.3072 H       
  54 H54           -9.8631     4.9505     3.1927 H       
  55 H55          -10.0027     7.1546     2.1040 H       
  56 H56           -7.9852     8.1769     1.1304 H       
  57 H57           -5.8266     6.9984     1.2524 H       
@<TRIPOS>BOND
   1    1    2 1
   2    1   14 2
   3    1    6 1
   4    2    3 ar
   5    2    7 ar
   6    3    4 ar
   7    3   10 ar
   8    4    5 1
   9    4   13 ar
  10    5    6 2
  11    5   23 1
  12    6   21 1
  13    7    8 ar
  14    7   33 1
  15    8    9 ar
  16    8   34 1
  17    9   10 ar
  18    9   35 1
  19   10   11 ar
  20   11   12 ar
  21   11   15 1
  22   12   13 ar
  23   12   36 1
  24   13   37 1
  25   15   16 1
  26   15   20 1
  27   16   17 1
  28   16   38 1
  29   16   39 1
  30   17   18 1
  31   17   40 1
  32   17   41 1
  33   18   19 1
  34   19   20 1
  35   19   42 1
  36   19   43 1
  37   20   44 1
  38   20   45 1
  39   21   22 3
  40   23   24 1
  41   23   46 1
  42   24   25 1
  43   24   47 1
  44   24   48 1
  45   25   26 1
  46   25   49 1
  47   25   50 1
  48   26   27 1
  49   26   51 1
  50   26   52 1
  51   27   28 ar
  52   27   32 ar
  53   28   29 ar
  54   28   53 1
  55   29   30 ar
  56   29   54 1
  57   30   31 ar
  58   30   55 1
  59   31   32 ar
  60   31   56 1
  61   32   57 1

#	End of record

