#	Name: ASD03731772
#	Creating user name:	WinNT
#	Creation time:	15. 06. 2019 20:46

#	Modifying user name:	WinNT
#	Modification time:	15. 06. 2019 20:46

#	Program:	/corina/corina34_cracker 3.40 0067  02.08.2006

@<TRIPOS>MOLECULE
ASD03731772
  37   38    0    0    0
SMALL
NO_CHARGES


@<TRIPOS>ATOM
   1 C1            -0.7927     1.3869     0.4286 C.2     
   2 C2            -0.5691    -0.0642     0.3097 C.ar    
   3 C3             0.5840    -0.5496    -0.3261 C.ar    
   4 C4             0.7863    -1.9144    -0.4335 C.ar    
   5 C5            -0.1490    -2.7981     0.0858 C.ar    
   6 C6            -1.2929    -2.3181     0.7166 C.ar    
   7 C7            -1.5021    -0.9635     0.8350 C.ar    
   8 O8             0.0229     2.1670    -0.0248 O.2     
   9 N9            -1.9037     1.8501     1.0348 N.am    
  10 S10           -2.1550     3.4815     1.1684 S.o2    
  11 O11           -3.3858     3.5901     1.8703 O.2     
  12 O12           -0.9465     3.9776     1.7276 O.2     
  13 C13           -2.3458     4.0517    -0.5430 C.3     
  14 O14            1.4968     0.3159    -0.8340 O.3     
  15 C15            2.6457    -0.2506    -1.4673 C.3     
  16 O16            0.0522    -4.1357    -0.0222 O.3     
  17 C17           -0.4589    -4.7723    -1.1089 C.ar    
  18 C18           -1.0673    -4.0414    -2.1193 C.ar    
  19 C19           -1.5861    -4.6902    -3.2239 C.ar    
  20 C20           -1.4991    -6.0699    -3.3218 C.ar    
  21 C21           -0.8927    -6.7994    -2.3139 C.ar    
  22 C22           -0.3677    -6.1526    -1.2115 C.ar    
  23 F23           -2.0069    -6.7034    -4.4016 F       
  24 Cl24          -2.3475    -3.7767    -4.4887 Cl      
  25 H25            1.6724    -2.2920    -0.9221 H       
  26 H26           -2.0170    -3.0115     1.1183 H       
  27 H27           -2.3888    -0.5949     1.3292 H       
  28 H28           -2.5561     1.2280     1.3929 H       
  29 H29           -3.1948     3.5455    -1.0022 H       
  30 H30           -2.5172     5.1281    -0.5504 H       
  31 H31           -1.4399     3.8243    -1.1049 H       
  32 H32            3.1910    -0.8635    -0.7496 H       
  33 H33            2.3297    -0.8692    -2.3072 H       
  34 H34            3.2929     0.5489    -1.8281 H       
  35 H35           -1.1356    -2.9663    -2.0425 H       
  36 H36           -0.8259    -7.8746    -2.3913 H       
  37 H37            0.1095    -6.7220    -0.4277 H       
@<TRIPOS>BOND
   1    1    2 1
   2    1    8 2
   3    1    9 am
   4    2    3 ar
   5    2    7 ar
   6    3    4 ar
   7    3   14 1
   8    4    5 ar
   9    4   25 1
  10    5    6 ar
  11    5   16 1
  12    6    7 ar
  13    6   26 1
  14    7   27 1
  15    9   10 am
  16    9   28 1
  17   10   11 2
  18   10   12 2
  19   10   13 1
  20   13   29 1
  21   13   30 1
  22   13   31 1
  23   14   15 1
  24   15   32 1
  25   15   33 1
  26   15   34 1
  27   16   17 1
  28   17   18 ar
  29   17   22 ar
  30   18   19 ar
  31   18   35 1
  32   19   20 ar
  33   19   24 1
  34   20   21 ar
  35   20   23 1
  36   21   22 ar
  37   21   36 1
  38   22   37 1

#	End of record

