#	Name: ASD01150801
#	Creating user name:	WinNT
#	Creation time:	15. 06. 2019 19:05

#	Modifying user name:	WinNT
#	Modification time:	15. 06. 2019 19:05

#	Program:	/corina/corina34_cracker 3.40 0067  02.08.2006

@<TRIPOS>MOLECULE
ASD01150801
  47   48    0    0    0
SMALL
NO_CHARGES


@<TRIPOS>ATOM
   1 C1            -0.0159     1.3215     0.0093 C.ar    
   2 N2             0.0021    -0.0041     0.0020 N.ar    
   3 C3             1.1478    -0.6644    -0.0124 C.ar    
   4 C4             2.3381     0.0464    -0.0200 C.ar    
   5 C5             2.2832     1.4313    -0.0120 C.ar    
   6 N6             1.1040     2.0304     0.0024 N.ar    
   7 C7             3.5518     2.2448    -0.0192 C.3     
   8 N8             3.8862     2.6182    -1.4001 N.3     
   9 C9             4.9793     3.6072    -1.4301 C.3     
  10 C10            6.1109     3.0118    -2.2941 C.3     
  11 C11            5.3695     1.9675    -3.1697 C.3     
  12 C12            4.3004     1.4347    -2.1834 C.3     
  13 C13            1.1594    -2.1713    -0.0202 C.3     
  14 S14           -1.5652     2.1607     0.0211 S.3     
  15 C15           -2.6906     0.7432     0.0187 C.3     
  16 C16           -4.1374     1.2406     0.0282 C.3     
  17 C17           -5.0887     0.0423     0.0261 C.3     
  18 C18           -6.5356     0.5398     0.0356 C.3     
  19 C19           -7.4869    -0.6585     0.0335 C.3     
  20 C20           -8.9337    -0.1611     0.0430 C.3     
  21 H21            3.2877    -0.4679    -0.0314 H       
  22 H22            3.4086     3.1464     0.5764 H       
  23 H23            4.3643     1.6546     0.4045 H       
  24 H24            4.6252     4.5380    -1.8730 H       
  25 H25            5.3420     3.7897    -0.4185 H       
  26 H26            6.5669     3.7821    -2.9160 H       
  27 H27            6.8599     2.5274    -1.6677 H       
  28 H28            4.9025     2.4425    -4.0325 H       
  29 H29            6.0442     1.1705    -3.4822 H       
  30 H30            4.7321     0.6781    -1.5282 H       
  31 H31            3.4509     1.0249    -2.7297 H       
  32 H32            1.1522    -2.5294    -1.0496 H       
  33 H33            2.0571    -2.5303     0.4832 H       
  34 H34            0.2773    -2.5441     0.5004 H       
  35 H35           -2.5182     0.1440    -0.8754 H       
  36 H36           -2.5099     0.1343     0.9045 H       
  37 H37           -4.3097     1.8398     0.9222 H       
  38 H38           -4.3181     1.8495    -0.8577 H       
  39 H39           -4.9164    -0.5569    -0.8679 H       
  40 H40           -4.9080    -0.5666     0.9120 H       
  41 H41           -6.7079     1.1389     0.9297 H       
  42 H42           -6.7162     1.1486    -0.8502 H       
  43 H43           -7.3145    -1.2577    -0.8605 H       
  44 H44           -7.3062    -1.2674     0.9194 H       
  45 H45           -9.1061     0.4381     0.9371 H       
  46 H46           -9.1144     0.4478    -0.8428 H       
  47 H47           -9.6114    -1.0148     0.0416 H       
@<TRIPOS>BOND
   1    1    2 ar
   2    1    6 ar
   3    1   14 1
   4    2    3 ar
   5    3    4 ar
   6    3   13 1
   7    4    5 ar
   8    4   21 1
   9    5    6 ar
  10    5    7 1
  11    7    8 1
  12    7   22 1
  13    7   23 1
  14    8    9 1
  15    8   12 1
  16    9   10 1
  17    9   24 1
  18    9   25 1
  19   10   11 1
  20   10   26 1
  21   10   27 1
  22   11   12 1
  23   11   28 1
  24   11   29 1
  25   12   30 1
  26   12   31 1
  27   13   32 1
  28   13   33 1
  29   13   34 1
  30   14   15 1
  31   15   16 1
  32   15   35 1
  33   15   36 1
  34   16   17 1
  35   16   37 1
  36   16   38 1
  37   17   18 1
  38   17   39 1
  39   17   40 1
  40   18   19 1
  41   18   41 1
  42   18   42 1
  43   19   20 1
  44   19   43 1
  45   19   44 1
  46   20   45 1
  47   20   46 1
  48   20   47 1

#	End of record

