#	Name: ASD04882459
#	Creating user name:	WinNT
#	Creation time:	15. 06. 2019 20:54

#	Modifying user name:	WinNT
#	Modification time:	15. 06. 2019 20:54

#	Program:	/corina/corina34_cracker 3.40 0067  02.08.2006

@<TRIPOS>MOLECULE
ASD04882459
  82   87    0    0    0
SMALL
NO_CHARGES


@<TRIPOS>ATOM
   1 C1            -0.0215     1.4013    -0.0094 C.ar    
   2 C2            -0.0117     0.0037    -0.0051 C.ar    
   3 C3            -1.2095    -0.7018    -0.0170 C.ar    
   4 C4            -2.4097    -0.0266    -0.0325 C.ar    
   5 C5            -2.4268     1.3710    -0.0368 C.ar    
   6 C6            -1.2240     2.0827    -0.0191 C.ar    
   7 N7             1.1996    -0.6831     0.0105 N.3     
   8 C8             1.3061    -1.5360     1.2024 C.3     
   9 C9             1.3728    -1.4734    -1.2163 C.3     
  10 C10            2.7466    -2.1477    -1.1959 C.3     
  11 N11            2.8531    -3.0006    -0.0039 N.3     
  12 C12            2.6799    -2.2103     1.2229 C.3     
  13 C13           -3.7127     2.0939    -0.0543 C.2     
  14 O14           -3.7266     3.3098    -0.0580 O.2     
  15 N15           -4.8720     1.4067    -0.0661 N.am    
  16 N16            1.1863     2.1109     0.0021 N.am    
  17 C17            4.0681    -3.6895     0.0117 C.ar    
  18 C18            4.0807    -5.0783     0.0160 C.ar    
  19 C19            5.2840    -5.7564     0.0310 C.ar    
  20 C20            6.4750    -5.0541     0.0423 C.ar    
  21 C21            6.4659    -3.6711     0.0381 C.ar    
  22 C22            5.2667    -2.9870     0.0173 C.ar    
  23 C23           -6.1489     2.1247    -0.0835 C.3     
  24 C24           -7.2830     1.1323    -0.0942 C.ar    
  25 C25           -7.8174     0.6808     1.0978 C.ar    
  26 C26            1.2294     3.3599     0.5068 C.2     
  27 O27            0.2059     3.8988     0.8856 O.2     
  28 C28            2.5092     4.0695     0.5995 C.2     
  29 C29            2.6935     5.3315     1.0876 C.2     
  30 C30            4.0664     5.6062     0.9879 C.2     
  31 C31            4.6525     4.5138     0.4501 C.2     
  32 O32            3.7118     3.5879     0.2228 O.3     
  33 C33            2.7831    -5.8446     0.0047 C.3     
  34 C34           -7.7927     0.6779    -1.2964 C.ar    
  35 C35           -8.8328    -0.2322    -1.3062 C.ar    
  36 C36           -9.3633    -0.6885    -0.1138 C.ar    
  37 C37           -8.8579    -0.2297     1.0880 C.ar    
  38 C38           -9.3890    -0.7268    -2.6166 C.3     
  39 N39           -8.6578    -1.9298    -3.0360 N.3     
  40 C40           -9.3207    -2.5783    -4.1822 C.3     
  41 C41           -8.2812    -2.6716    -5.3189 C.3     
  42 C42           -6.9288    -2.5878    -4.5633 C.3     
  43 C43           -7.2693    -1.5985    -3.4210 C.3     
  44 H44           -1.1988    -1.7817    -0.0144 H       
  45 H45           -3.3386    -0.5776    -0.0416 H       
  46 H46           -1.2341     3.1626    -0.0220 H       
  47 H47            1.1870    -0.9261     2.0979 H       
  48 H48            0.5273    -2.2982     1.1749 H       
  49 H49            0.5948    -2.2348    -1.2713 H       
  50 H50            1.3024    -0.8177    -2.0842 H       
  51 H51            2.8657    -2.7576    -2.0914 H       
  52 H52            3.5254    -1.3855    -1.1684 H       
  53 H53            3.4579    -1.4489     1.2778 H       
  54 H54            2.7503    -2.8660     2.0908 H       
  55 H55           -4.8610     0.4368    -0.0632 H       
  56 H56            1.9917     1.7034    -0.3532 H       
  57 H57            5.2946    -6.8363     0.0343 H       
  58 H58            7.4144    -5.5867     0.0548 H       
  59 H59            7.3980    -3.1256     0.0473 H       
  60 H60            5.2603    -1.9070     0.0137 H       
  61 H61           -6.2245     2.7532     0.8038 H       
  62 H62           -6.2032     2.7480    -0.9761 H       
  63 H63           -7.4220     1.0389     2.0368 H       
  64 H64            1.9307     5.9907     1.4748 H       
  65 H65            4.5612     6.5191     1.2848 H       
  66 H66            5.7066     4.4038     0.2421 H       
  67 H67            2.4810    -6.0324    -1.0257 H       
  68 H68            2.9174    -6.7942     0.5227 H       
  69 H69            2.0124    -5.2615     0.5087 H       
  70 H70           -7.3783     1.0344    -2.2278 H       
  71 H71          -10.1764    -1.3994    -0.1214 H       
  72 H72           -9.2723    -0.5861     2.0195 H       
  73 H73          -10.4452    -0.9674    -2.4953 H       
  74 H74           -9.2777     0.0488    -3.3744 H       
  75 H75           -9.6537    -3.5775    -3.9013 H       
  76 H76          -10.1716    -1.9790    -4.5062 H       
  77 H77           -8.3702    -3.6217    -5.8456 H       
  78 H78           -8.3892    -1.8353    -6.0096 H       
  79 H79           -6.6433    -3.5613    -4.1646 H       
  80 H80           -6.1461    -2.1865    -5.2071 H       
  81 H81           -7.2096    -0.5707    -3.7788 H       
  82 H82           -6.5958    -1.7471    -2.5770 H       
@<TRIPOS>BOND
   1    1    2 ar
   2    1   16 1
   3    1    6 ar
   4    2    3 ar
   5    2    7 1
   6    3    4 ar
   7    3   44 1
   8    4    5 ar
   9    4   45 1
  10    5    6 ar
  11    5   13 1
  12    6   46 1
  13    7    8 1
  14    7    9 1
  15    8   12 1
  16    8   47 1
  17    8   48 1
  18    9   10 1
  19    9   49 1
  20    9   50 1
  21   10   11 1
  22   10   51 1
  23   10   52 1
  24   11   12 1
  25   11   17 1
  26   12   53 1
  27   12   54 1
  28   13   14 2
  29   13   15 am
  30   15   23 1
  31   15   55 1
  32   16   26 am
  33   16   56 1
  34   17   18 ar
  35   17   22 ar
  36   18   19 ar
  37   18   33 1
  38   19   20 ar
  39   19   57 1
  40   20   21 ar
  41   20   58 1
  42   21   22 ar
  43   21   59 1
  44   22   60 1
  45   23   24 1
  46   23   61 1
  47   23   62 1
  48   24   25 ar
  49   24   34 ar
  50   25   37 ar
  51   25   63 1
  52   26   28 1
  53   26   27 2
  54   28   29 2
  55   28   32 1
  56   29   30 1
  57   29   64 1
  58   30   31 2
  59   30   65 1
  60   31   32 1
  61   31   66 1
  62   33   67 1
  63   33   68 1
  64   33   69 1
  65   34   35 ar
  66   34   70 1
  67   35   36 ar
  68   35   38 1
  69   36   37 ar
  70   36   71 1
  71   37   72 1
  72   38   39 1
  73   38   73 1
  74   38   74 1
  75   39   40 1
  76   39   43 1
  77   40   41 1
  78   40   75 1
  79   40   76 1
  80   41   42 1
  81   41   77 1
  82   41   78 1
  83   42   43 1
  84   42   79 1
  85   42   80 1
  86   43   81 1
  87   43   82 1

#	End of record

