#	Name: ASD06300013
#	Creating user name:	WinNT
#	Creation time:	15. 06. 2019 21:05

#	Modifying user name:	WinNT
#	Modification time:	15. 06. 2019 21:05

#	Program:	/corina/corina34_cracker 3.40 0067  02.08.2006

@<TRIPOS>MOLECULE
ASD06300013
 259  265    0    0    0
SMALL
NO_CHARGES


@<TRIPOS>ATOM
   1 N1            -0.9496    -3.1024     6.7716 N.am    
   2 C2             9.1098   -27.7771   -19.5917 C.3     
   3 C3             7.9215   -27.1821   -20.3023 C.2     
   4 N4             8.6445   -28.6421   -18.4994 N.3     
   5 O5             6.8528   -27.7440   -20.2665 O.2     
   6 C6            11.2616   -30.3435   -19.3660 C.ar    
   7 C7            12.4219   -30.7755   -18.7513 C.ar    
   8 C8            13.5197   -29.9384   -18.6810 C.ar    
   9 C9            13.4573   -28.6695   -19.2257 C.ar    
  10 C10           12.2968   -28.2373   -19.8400 C.ar    
  11 C11           11.1990   -29.0744   -19.9103 C.ar    
  12 C12            9.9342   -28.6036   -20.5808 C.3     
  13 C13            3.4421   -21.8009   -13.1136 C.3     
  14 C14            4.2866   -21.0610   -12.1085 C.2     
  15 N15            3.7737   -23.2274   -13.0744 N.am    
  16 O16            5.0868   -21.6657   -11.4265 O.2     
  17 C17            0.7345   -23.5715   -13.7320 C.ar    
  18 C18           -0.0425   -24.1545   -14.7155 C.ar    
  19 C19           -0.4384   -23.4137   -15.8133 C.ar    
  20 C20           -0.0577   -22.0897   -15.9275 C.ar    
  21 C21            0.7197   -21.5068   -14.9443 C.ar    
  22 C22            1.1156   -22.2476   -13.8464 C.ar    
  23 C23            1.9623   -21.6118   -12.7741 C.3     
  24 C24            4.3049   -19.0730    -9.6157 C.3     
  25 C25            4.9738   -19.0081   -10.9902 C.3     
  26 C26            5.1130   -17.5685   -11.4137 C.2     
  27 N27            4.1528   -19.7274   -11.9674 N.am    
  28 O28            4.5790   -17.1815   -12.4315 O.2     
  29 C29            4.2761   -20.5238    -9.1305 C.3     
  30 C30            5.7077   -21.0154    -8.9076 C.3     
  31 C31            3.4979   -20.6065    -7.8159 C.3     
  32 C32            7.1241   -15.1815   -12.0646 C.3     
  33 C33            5.9662   -15.3118   -11.0730 C.3     
  34 C34            6.2423   -14.4567    -9.8632 C.2     
  35 N35            5.8309   -16.7112   -10.6613 N.am    
  36 O36            6.5653   -14.9749    -8.8153 O.2     
  37 C37            6.7795   -15.9321   -13.3525 C.3     
  38 C38            7.9200   -15.8038   -14.3292 C.2     
  39 O39            8.9108   -15.1740   -14.0251 O.2     
  40 N40            7.8388   -16.3890   -15.5406 N.am    
  41 C41            6.8715   -10.8853    -9.2708 C.3     
  42 C42            6.4671   -12.2805    -8.7904 C.3     
  43 C43            5.2689   -12.1716    -7.8829 C.2     
  44 N44            6.1304   -13.1161    -9.9456 N.am    
  45 O45            4.2355   -12.7364    -8.1726 O.2     
  46 C46            8.1518   -10.9774   -10.0603 C.2     
  47 C47            9.3960   -10.8039    -9.5872 C.2     
  48 N48           10.3055   -10.9644   -10.5967 N.pl3   
  49 C49            9.6522   -11.2524   -11.7740 C.ar    
  50 C50            8.2750   -11.2794   -11.4884 C.ar    
  51 C51           10.0839   -11.5020   -13.0728 C.ar    
  52 C52            9.1618   -11.7654   -14.0616 C.ar    
  53 C53            7.8033   -11.7847   -13.7759 C.ar    
  54 C54            7.3582   -11.5563   -12.5045 C.ar    
  55 C55            3.2728   -10.2102    -6.3550 C.3     
  56 C56            4.1810   -11.3407    -5.8672 C.3     
  57 C57            4.6400   -11.0457    -4.4624 C.2     
  58 N58            5.3458   -11.4466    -6.7494 N.am    
  59 O59            5.8235   -10.9348    -4.2218 O.2     
  60 C60            2.7073   -10.5679    -7.7308 C.3     
  61 C61            1.7991    -9.4374    -8.2186 C.3     
  62 C62            1.2336    -9.7951    -9.5945 C.3     
  63 N63            0.3616    -8.7097   -10.0629 N.3     
  64 C64            4.5333   -11.9286    -1.4005 C.3     
  65 C65            4.1814   -10.6184    -2.1078 C.3     
  66 C66            3.0777    -9.9216    -1.3546 C.2     
  67 N67            3.7353   -10.9051    -3.4734 N.am    
  68 O68            2.0223    -9.6877    -1.9043 O.2     
  69 C69            5.7176   -12.5648    -2.0815 C.2     
  70 C70            5.6782   -13.5056    -3.0382 C.2     
  71 N71            6.9500   -13.8409    -3.4154 N.pl3   
  72 C72            7.8620   -13.1052    -2.6923 C.ar    
  73 C73            7.1301   -12.2692    -1.8296 C.ar    
  74 C74            9.2521   -13.0515    -2.6763 C.ar    
  75 C75            9.8936   -12.1885    -1.8153 C.ar    
  76 C76            9.1668   -11.3700    -0.9614 C.ar    
  77 C77            7.8007   -11.3963    -0.9706 C.ar    
  78 C78            1.2360    -9.9236     1.2482 C.3     
  79 C79            2.1904    -8.8812     0.6622 C.3     
  80 C80            2.7841    -8.0603     1.7779 C.2     
  81 N81            3.2634    -9.5585    -0.0700 N.am    
  82 O82            3.9852    -8.0427     1.9450 O.2     
  83 C83            2.7668    -7.4338     4.9042 C.3     
  84 C84            2.5574    -6.5476     3.6746 C.3     
  85 C85            1.6202    -5.4198     4.0220 C.2     
  86 N86            1.9803    -7.3456     2.5901 N.am    
  87 O87            0.5733    -5.2949     3.4227 O.2     
  88 C88            3.8129    -8.5048     4.5887 C.3     
  89 C89            4.0192    -9.3777     5.7998 C.2     
  90 O90            3.3936    -9.1650     6.8114 O.2     
  91 O91            4.8978   -10.3914     5.7547 O.3     
  92 C92            1.8280    -2.3060     5.9644 C.3     
  93 C93            1.0344    -3.4535     5.3365 C.3     
  94 C94           -0.0003    -3.9439     6.3163 C.2     
  95 N95            1.9454    -4.5499     4.9988 N.am    
  96 O96            0.0212    -5.0958     6.6953 O.2     
  97 N97            4.5098    -0.0232     4.5636 N.pl3   
  98 C98            5.3328     1.0250     4.9014 C.2     
  99 N99            5.2914     1.5246     6.1045 N.2     
 100 N100           6.1996     1.5461     3.9701 N.pl3   
 101 C101           2.7926    -1.7260     4.9280 C.3     
 102 C102           3.5862    -0.5785     5.5559 C.3     
 103 O103           9.1331   -25.3419   -21.0830 O.2     
 104 C104           8.0645   -25.9038   -21.0472 C.2     
 105 C105           6.8762   -25.3087   -21.7577 C.3     
 106 C106           6.7865   -30.1242   -18.1067 C.3     
 107 C107           5.9734   -28.8936   -17.7977 C.2     
 108 N108           7.8852   -29.7698   -19.0150 N.3     
 109 O109           6.4510   -27.7922   -17.9699 O.2     
 110 C110           9.4051   -32.0551   -17.2970 C.ar    
 111 C111          10.0259   -33.2622   -17.5589 C.ar    
 112 C112           9.2799   -34.4245   -17.6184 C.ar    
 113 C113           7.9133   -34.3798   -17.4156 C.ar    
 114 C114           7.2924   -33.1727   -17.1542 C.ar    
 115 C115           8.0384   -32.0104   -17.0947 C.ar    
 116 C116           7.3617   -30.6946   -16.8087 C.3     
 117 C117           3.0910   -26.1480   -13.0133 C.3     
 118 C118           3.9006   -25.4664   -14.1181 C.3     
 119 C119           3.5595   -23.9990   -14.1584 C.2     
 120 N120           3.5771   -26.0786   -15.4092 N.am    
 121 O121           3.0921   -23.5126   -15.1663 O.2     
 122 N122           3.1352   -29.6901   -11.6650 N.pl3   
 123 C123           2.5429   -30.5072   -10.7314 C.2     
 124 N124           2.9144   -31.7521   -10.6255 N.2     
 125 N125           1.5586   -30.0113    -9.9095 N.pl3   
 126 C126           3.5271   -27.6093   -12.8889 C.3     
 127 C127           2.7175   -28.2909   -11.7841 C.3     
 128 C128           2.4093   -28.2218   -17.1537 C.3     
 129 C129           3.8868   -27.8249   -17.1334 C.3     
 130 C130           4.2196   -27.1951   -15.8054 C.2     
 131 N131           4.7154   -29.0169   -17.3299 N.am    
 132 O132           5.0657   -27.6930   -15.0932 O.2     
 133 C133           2.0406   -28.7154   -18.5290 C.2     
 134 O134           2.8440   -28.6519   -19.4292 O.2     
 135 O135           0.8196   -29.2257   -18.7539 O.3     
 136 H136          -0.9668    -2.1811     6.4685 H       
 137 H137          -1.6179    -3.4191     7.3992 H       
 138 H138           9.7273   -26.9769   -19.1837 H       
 139 H139           9.4177   -28.9559   -17.9322 H       
 140 H140          10.4054   -30.9992   -19.4249 H       
 141 H141          12.4707   -31.7669   -18.3257 H       
 142 H142          14.4260   -30.2757   -18.2001 H       
 143 H143          14.3148   -28.0152   -19.1702 H       
 144 H144          12.2480   -27.2457   -20.2653 H       
 145 H145           9.3529   -29.4662   -20.9066 H       
 146 H146          10.1879   -27.9892   -21.4447 H       
 147 H147           3.6387   -21.4095   -14.1117 H       
 148 H148           4.1475   -23.6164   -12.2683 H       
 149 H149           1.0401   -24.1490   -12.8721 H       
 150 H150          -0.3399   -25.1889   -14.6262 H       
 151 H151          -1.0449   -23.8694   -16.5821 H       
 152 H152          -0.3665   -21.5111   -16.7856 H       
 153 H153           1.0174   -20.4725   -15.0337 H       
 154 H154           1.7467   -22.0820   -11.8146 H       
 155 H155           1.7360   -20.5472   -12.7160 H       
 156 H156           4.8682   -18.4644    -8.9084 H       
 157 H157           3.2854   -18.6943    -9.6896 H       
 158 H158           5.9606   -19.4680   -10.9361 H       
 159 H159           3.5128   -19.2438   -12.5128 H       
 160 H160           3.7901   -21.1481    -9.8803 H       
 161 H161           5.6872   -22.0490    -8.5619 H       
 162 H162           6.2621   -20.9565    -9.8442 H       
 163 H163           6.1936   -20.3911    -8.1578 H       
 164 H164           2.4780   -20.2562    -7.9747 H       
 165 H165           3.4774   -21.6400    -7.4702 H       
 166 H166           3.9838   -19.9822    -7.0661 H       
 167 H167           7.2915   -14.1286   -12.2914 H       
 168 H168           8.0271   -15.6068   -11.6267 H       
 169 H169           5.0423   -14.9818   -11.5479 H       
 170 H170           6.2580   -17.0208    -9.8473 H       
 171 H171           6.6121   -16.9850   -13.1257 H       
 172 H172           5.8765   -15.5068   -13.7904 H       
 173 H173           7.0463   -16.8927   -15.7838 H       
 174 H174           8.5729   -16.3064   -16.1693 H       
 175 H175           6.0834   -10.4761    -9.9029 H       
 176 H176           7.0217   -10.2340    -8.4098 H       
 177 H177           7.2961   -12.7315    -8.2451 H       
 178 H178           5.8268   -12.7046   -10.7699 H       
 179 H179           9.6425   -10.5715    -8.5617 H       
 180 H180          11.2673   -10.8866   -10.4978 H       
 181 H181          11.1386   -11.4889   -13.3051 H       
 182 H182           9.4989   -11.9585   -15.0693 H       
 183 H183           7.0934   -11.9925   -14.5628 H       
 184 H184           6.3000   -11.5750   -12.2892 H       
 185 H185           2.4531   -10.0726    -5.6498 H       
 186 H186           3.8484    -9.2874    -6.4275 H       
 187 H187           3.6294   -12.2808    -5.8793 H       
 188 H188           6.1723   -10.9949    -6.5177 H       
 189 H189           3.5270   -10.7055    -8.4360 H       
 190 H190           2.1317   -11.4907    -7.6583 H       
 191 H191           0.9794    -9.2999    -7.5135 H       
 192 H192           2.3747    -8.5146    -8.2912 H       
 193 H193           2.0533    -9.9327   -10.2997 H       
 194 H194           0.6580   -10.7179    -9.5220 H       
 195 H195          -0.0247    -8.9222   -10.9705 H       
 196 H196          -0.3697    -8.5192    -9.3943 H       
 197 H197           4.7800   -11.7242    -0.3586 H       
 198 H198           3.6809   -12.6063    -1.4459 H       
 199 H199           5.0611    -9.9755    -2.1404 H       
 200 H200           2.7887   -10.9938    -3.6658 H       
 201 H201           4.7762   -13.9348    -3.4489 H       
 202 H202           7.1756   -14.4990    -4.0913 H       
 203 H203           9.8264   -13.6845    -3.3365 H       
 204 H204          10.9728   -12.1486    -1.8041 H       
 205 H205           9.6852   -10.6992    -0.2922 H       
 206 H206           7.2419   -10.7551    -0.3050 H       
 207 H207           0.4376    -9.4196     1.7930 H       
 208 H208           0.8066   -10.5173     0.4413 H       
 209 H209           1.7838   -10.5764     1.9278 H       
 210 H210           1.6427    -8.2284    -0.0174 H       
 211 H211           4.1076    -9.7456     0.3697 H       
 212 H212           3.1124    -6.8227     5.7379 H       
 213 H213           1.8250    -7.9133     5.1711 H       
 214 H214           3.5155    -6.1383     3.3544 H       
 215 H215           1.0196    -7.3597     2.4565 H       
 216 H216           3.4673    -9.1159     3.7550 H       
 217 H217           4.7547    -8.0253     4.3219 H       
 218 H218           4.9957   -10.9235     6.5561 H       
 219 H219           1.1406    -1.5279     6.2965 H       
 220 H220           2.3935    -2.6797     6.8180 H       
 221 H221           0.5394    -3.1006     4.4317 H       
 222 H222           2.7828    -4.6498     5.4781 H       
 223 H223           4.5407    -0.3950     3.6682 H       
 224 H224           5.8721     2.2642     6.3428 H       
 225 H225           6.2305     1.1743     3.0747 H       
 226 H226           6.7803     2.2856     4.2084 H       
 227 H227           3.4799    -2.5041     4.5960 H       
 228 H228           2.2271    -1.3523     4.0744 H       
 229 H229           4.1517    -0.9523     6.4095 H       
 230 H230           2.8988     0.1996     5.8880 H       
 231 H231           6.0077   -25.9515   -21.6141 H       
 232 H232           6.6673   -24.3194   -21.3505 H       
 233 H233           7.0940   -25.2248   -22.8224 H       
 234 H234           6.1495   -30.8709   -18.5808 H       
 235 H235           7.5394   -29.5787   -19.9435 H       
 236 H236           9.9885   -31.1477   -17.2461 H       
 237 H237          11.0936   -33.2971   -17.7174 H       
 238 H238           9.7648   -35.3674   -17.8238 H       
 239 H239           7.3304   -35.2878   -17.4628 H       
 240 H240           6.2246   -33.1377   -16.9960 H       
 241 H241           8.0879   -29.9950   -16.3948 H       
 242 H242           6.5559   -30.8488   -16.0911 H       
 243 H243           3.2641   -25.6354   -12.0670 H       
 244 H244           2.0303   -26.1053   -13.2609 H       
 245 H245           4.9648   -25.5865   -13.9155 H       
 246 H246           2.9004   -25.6804   -15.9788 H       
 247 H247           3.8296   -30.0400   -12.2449 H       
 248 H248           2.4966   -32.3286    -9.9668 H       
 249 H249           1.2821   -29.0849    -9.9883 H       
 250 H250           1.1407   -30.5878    -9.2508 H       
 251 H251           3.3540   -28.1219   -13.8352 H       
 252 H252           4.5878   -27.6520   -12.6413 H       
 253 H253           1.6569   -28.2482   -12.0317 H       
 254 H254           2.8906   -27.7783   -10.8378 H       
 255 H255           2.2358   -29.0135   -16.4249 H       
 256 H256           1.7970   -27.3558   -16.9022 H       
 257 H257           4.0822   -27.1107   -17.9334 H       
 258 H258           4.3587   -29.8950   -17.1234 H       
 259 H259           0.6293   -29.5293   -19.6521 H       
@<TRIPOS>BOND
   1    1   94 am
   2    1  136 1
   3    1  137 1
   4    2    3 1
   5    2    4 1
   6    2   12 1
   7    2  138 1
   8    3    5 2
   9    3  104 1
  10    4  108 1
  11    4  139 1
  12    6    7 ar
  13    6   11 ar
  14    6  140 1
  15    7    8 ar
  16    7  141 1
  17    8    9 ar
  18    8  142 1
  19    9   10 ar
  20    9  143 1
  21   10   11 ar
  22   10  144 1
  23   11   12 1
  24   12  145 1
  25   12  146 1
  26   13   14 1
  27   13   15 1
  28   13   23 1
  29   13  147 1
  30   14   16 2
  31   14   27 am
  32   15  119 am
  33   15  148 1
  34   17   18 ar
  35   17   22 ar
  36   17  149 1
  37   18   19 ar
  38   18  150 1
  39   19   20 ar
  40   19  151 1
  41   20   21 ar
  42   20  152 1
  43   21   22 ar
  44   21  153 1
  45   22   23 1
  46   23  154 1
  47   23  155 1
  48   24   29 1
  49   24   25 1
  50   24  156 1
  51   24  157 1
  52   25   27 1
  53   25   26 1
  54   25  158 1
  55   26   28 2
  56   26   35 am
  57   27  159 1
  58   29   30 1
  59   29   31 1
  60   29  160 1
  61   30  161 1
  62   30  162 1
  63   30  163 1
  64   31  164 1
  65   31  165 1
  66   31  166 1
  67   32   37 1
  68   32   33 1
  69   32  167 1
  70   32  168 1
  71   33   35 1
  72   33   34 1
  73   33  169 1
  74   34   36 2
  75   34   44 am
  76   35  170 1
  77   37   38 1
  78   37  171 1
  79   37  172 1
  80   38   39 2
  81   38   40 am
  82   40  173 1
  83   40  174 1
  84   41   46 1
  85   41   42 1
  86   41  175 1
  87   41  176 1
  88   42   43 1
  89   42   44 1
  90   42  177 1
  91   43   45 2
  92   43   58 am
  93   44  178 1
  94   46   47 2
  95   46   50 1
  96   47   48 1
  97   47  179 1
  98   48   49 1
  99   48  180 1
 100   49   50 ar
 101   49   51 ar
 102   50   54 ar
 103   51   52 ar
 104   51  181 1
 105   52   53 ar
 106   52  182 1
 107   53   54 ar
 108   53  183 1
 109   54  184 1
 110   55   60 1
 111   55   56 1
 112   55  185 1
 113   55  186 1
 114   56   58 1
 115   56   57 1
 116   56  187 1
 117   57   59 2
 118   57   67 am
 119   58  188 1
 120   60   61 1
 121   60  189 1
 122   60  190 1
 123   61   62 1
 124   61  191 1
 125   61  192 1
 126   62   63 1
 127   62  193 1
 128   62  194 1
 129   63  195 1
 130   63  196 1
 131   64   69 1
 132   64   65 1
 133   64  197 1
 134   64  198 1
 135   65   66 1
 136   65   67 1
 137   65  199 1
 138   66   68 2
 139   66   81 am
 140   67  200 1
 141   69   70 2
 142   69   73 1
 143   70   71 1
 144   70  201 1
 145   71   72 1
 146   71  202 1
 147   72   73 ar
 148   72   74 ar
 149   73   77 ar
 150   74   75 ar
 151   74  203 1
 152   75   76 ar
 153   75  204 1
 154   76   77 ar
 155   76  205 1
 156   77  206 1
 157   78   79 1
 158   78  207 1
 159   78  208 1
 160   78  209 1
 161   79   80 1
 162   79   81 1
 163   79  210 1
 164   80   82 2
 165   80   86 am
 166   81  211 1
 167   83   88 1
 168   83   84 1
 169   83  212 1
 170   83  213 1
 171   84   86 1
 172   84   85 1
 173   84  214 1
 174   85   87 2
 175   85   95 am
 176   86  215 1
 177   88   89 1
 178   88  216 1
 179   88  217 1
 180   89   90 2
 181   89   91 1
 182   91  218 1
 183   92  101 1
 184   92   93 1
 185   92  219 1
 186   92  220 1
 187   93   95 1
 188   93   94 1
 189   93  221 1
 190   94   96 2
 191   95  222 1
 192   97  102 1
 193   97   98 1
 194   97  223 1
 195   98   99 2
 196   98  100 1
 197   99  224 1
 198  100  225 1
 199  100  226 1
 200  101  102 1
 201  101  227 1
 202  101  228 1
 203  102  229 1
 204  102  230 1
 205  103  104 2
 206  104  105 1
 207  105  231 1
 208  105  232 1
 209  105  233 1
 210  106  107 1
 211  106  108 1
 212  106  116 1
 213  106  234 1
 214  107  109 2
 215  107  131 am
 216  108  235 1
 217  110  111 ar
 218  110  115 ar
 219  110  236 1
 220  111  112 ar
 221  111  237 1
 222  112  113 ar
 223  112  238 1
 224  113  114 ar
 225  113  239 1
 226  114  115 ar
 227  114  240 1
 228  115  116 1
 229  116  241 1
 230  116  242 1
 231  117  126 1
 232  117  118 1
 233  117  243 1
 234  117  244 1
 235  118  120 1
 236  118  119 1
 237  118  245 1
 238  119  121 2
 239  120  130 am
 240  120  246 1
 241  122  127 1
 242  122  123 1
 243  122  247 1
 244  123  124 2
 245  123  125 1
 246  124  248 1
 247  125  249 1
 248  125  250 1
 249  126  127 1
 250  126  251 1
 251  126  252 1
 252  127  253 1
 253  127  254 1
 254  128  133 1
 255  128  129 1
 256  128  255 1
 257  128  256 1
 258  129  130 1
 259  129  131 1
 260  129  257 1
 261  130  132 2
 262  131  258 1
 263  133  134 2
 264  133  135 1
 265  135  259 1

#	End of record

