#	Name: ASD00431186
#	Creating user name:	WinNT
#	Creation time:	15. 06. 2019 18:35

#	Modifying user name:	WinNT
#	Modification time:	15. 06. 2019 18:35

#	Program:	/corina/corina34_cracker 3.40 0067  02.08.2006

@<TRIPOS>MOLECULE
ASD00431186
  47   49    0    0    0
SMALL
NO_CHARGES


@<TRIPOS>ATOM
   1 C1            -0.0530     2.1190     0.1552 C.3     
   2 S2            -0.0685     0.3051     0.1645 S.o2    
   3 O3             0.7725    -0.1955     1.1947 O.2     
   4 O4            -1.3925    -0.1831    -0.0025 O.2     
   5 O5             0.6414    -0.0873    -1.1234 O.3     
   6 C6             2.0596     0.0829    -1.0804 C.3     
   7 C7             2.7208    -1.2414    -0.6933 C.3     
   8 S8             2.1104    -0.1384    -3.9675 S.3     
   9 N9             3.1084     0.9080    -4.8602 N.2     
  10 C10            3.7045     1.6701    -3.9737 C.2     
  11 N11            3.4138     1.4630    -2.7022 N.2     
  12 C12            2.5551     0.5142    -2.4368 C.2     
  13 S13            5.5316     3.8059    -3.3020 S.3     
  14 C14            6.2951     4.5442    -4.6415 C.2     
  15 N15            5.9003     3.9911    -5.7460 N.2     
  16 C16            5.0277     3.0107    -5.6470 C.2     
  17 C17            4.6632     2.7179    -4.3819 C.2     
  18 O18            7.1852     5.5621    -4.5608 O.3     
  19 C19            7.7861     5.9771    -5.7077 C.ar    
  20 C20            7.0326     6.5706    -6.7100 C.ar    
  21 C21            7.6431     6.9926    -7.8748 C.ar    
  22 C22            9.0095     6.8225    -8.0427 C.ar    
  23 C23            9.7629     6.2287    -7.0408 C.ar    
  24 C24            9.1535     5.8123    -5.8733 C.ar    
  25 O25            9.6104     7.2376    -9.1897 O.3     
  26 C26            8.7580     7.7139   -10.2330 C.3     
  27 C27            8.6231     9.2343   -10.1271 C.3     
  28 C28            9.3609     7.3487   -11.5909 C.3     
  29 H29            0.9776     2.4735     0.1344 H       
  30 H30           -0.5801     2.4824    -0.7270 H       
  31 H31           -0.5471     2.4912     1.0527 H       
  32 H32            2.3119     0.8444    -0.3425 H       
  33 H33            3.8025    -1.1115    -0.6606 H       
  34 H34            2.3624    -1.5533     0.2877 H       
  35 H35            2.4684    -2.0029    -1.4313 H       
  36 H36            4.6363     2.4858    -6.5059 H       
  37 H37            5.9687     6.7024    -6.5796 H       
  38 H38            7.0566     7.4546    -8.6551 H       
  39 H39           10.8266     6.0957    -7.1718 H       
  40 H40            9.7409     5.3542    -5.0912 H       
  41 H41            7.7743     7.2543   -10.1367 H       
  42 H42            8.1935     9.4945    -9.1597 H       
  43 H43            9.6067     9.6939   -10.2233 H       
  44 H44            7.9729     9.5977   -10.9229 H       
  45 H45            9.4570     6.2656   -11.6663 H       
  46 H46            8.7107     7.7121   -12.3867 H       
  47 H47           10.3446     7.8083   -11.6871 H       
@<TRIPOS>BOND
   1    1    2 1
   2    1   29 1
   3    1   30 1
   4    1   31 1
   5    2    3 2
   6    2    4 2
   7    2    5 1
   8    5    6 1
   9    6    7 1
  10    6   12 1
  11    6   32 1
  12    7   33 1
  13    7   34 1
  14    7   35 1
  15    8    9 1
  16    8   12 1
  17    9   10 2
  18   10   11 1
  19   10   17 1
  20   11   12 2
  21   13   14 1
  22   13   17 1
  23   14   15 2
  24   14   18 1
  25   15   16 1
  26   16   17 2
  27   16   36 1
  28   18   19 1
  29   19   20 ar
  30   19   24 ar
  31   20   21 ar
  32   20   37 1
  33   21   22 ar
  34   21   38 1
  35   22   23 ar
  36   22   25 1
  37   23   24 ar
  38   23   39 1
  39   24   40 1
  40   25   26 1
  41   26   27 1
  42   26   28 1
  43   26   41 1
  44   27   42 1
  45   27   43 1
  46   27   44 1
  47   28   45 1
  48   28   46 1
  49   28   47 1

#	End of record

