#	Name: ASD07931735
#	Creating user name:	WinNT
#	Creation time:	15. 06. 2019 21:13

#	Modifying user name:	WinNT
#	Modification time:	15. 06. 2019 21:13

#	Program:	/corina/corina34_cracker 3.40 0067  02.08.2006

@<TRIPOS>MOLECULE
ASD07931735
  61   65    0    0    0
SMALL
NO_CHARGES


@<TRIPOS>ATOM
   1 C1             1.9429    -2.0969    -1.0492 C.2     
   2 C2             0.8461    -1.3006    -1.2344 C.2     
   3 C3             1.0344     0.1486    -1.3369 C.2     
   4 N4             2.2750     0.6590    -1.2487 N.am    
   5 C5             3.3628    -0.1633    -1.0601 C.2     
   6 C6             3.2125    -1.5123    -0.9620 C.2     
   7 C7             2.4999     2.1070    -1.3535 C.3     
   8 C8             3.5673     2.4988    -0.3209 C.3     
   9 N9             4.8001     1.7560    -0.6194 N.am    
  10 C10            4.7062     0.4495    -0.9641 C.2     
  11 C11            6.1057     2.4164    -0.5456 C.3     
  12 O12            0.0759     0.8842    -1.5008 O.2     
  13 N13           -0.4317    -1.8598    -1.3247 N.pl3   
  14 C14           -1.1014    -2.5279    -0.3318 C.2     
  15 C15           -1.2477    -1.8393    -2.4113 C.2     
  16 N16           -2.3544    -2.4626    -2.1114 N.2     
  17 C17           -2.2917    -2.8950    -0.8430 C.2     
  18 C18           -3.3676    -3.6596    -0.1159 C.3     
  19 O19            5.7049    -0.2062    -1.1894 O.2     
  20 C20            6.3910     2.8219     0.9019 C.3     
  21 C21            6.2679     1.5987     1.8372 C.3     
  22 C22            5.6318     2.1720     3.1233 C.3     
  23 C23            5.4458     3.6737     2.8128 C.3     
  24 O24            5.3873     3.7481     1.3717 O.3     
  25 C25            4.1609     4.1791     3.4167 C.ar    
  26 C26            4.1289     4.5810     4.7445 C.ar    
  27 C27            3.0158     4.2477     2.6472 C.ar    
  28 C28            1.8364     4.7116     3.2000 C.ar    
  29 C29            1.8001     5.1082     4.5251 C.ar    
  30 C30            2.9452     5.0461     5.2977 C.ar    
  31 Cl31           0.3177     5.6902     5.2162 Cl      
  32 C32            6.0975     3.6632    -1.4323 C.3     
  33 O33            5.2556     4.5185     5.5017 O.3     
  34 C34            5.1489     4.9486     6.8603 C.3     
  35 F35            4.7464     6.2880     6.8952 F       
  36 F36            4.2043     4.1602     7.5262 F       
  37 H37            1.8301    -3.1678    -0.9664 H       
  38 H38            4.0805    -2.1380    -0.8152 H       
  39 H39            2.8493     2.3538    -2.3561 H       
  40 H40            1.5723     2.6398    -1.1445 H       
  41 H41            3.7610     3.5697    -0.3827 H       
  42 H42            3.2195     2.2438     0.6801 H       
  43 H43            6.8797     1.7306    -0.8901 H       
  44 H44           -0.7428    -2.7222     0.6682 H       
  45 H45           -1.0189    -1.3834    -3.3632 H       
  46 H46           -3.2161    -4.7289    -0.2630 H       
  47 H47           -3.3211    -3.4290     0.9484 H       
  48 H48           -4.3440    -3.3738    -0.5072 H       
  49 H49            7.3844     3.2631     0.9828 H       
  50 H50            5.6192     0.8429     1.3944 H       
  51 H51            7.2518     1.1810     2.0512 H       
  52 H52            4.6686     1.6996     3.3163 H       
  53 H53            6.3011     2.0377     3.9731 H       
  54 H54            6.2936     4.2467     3.1883 H       
  55 H55            3.0419     3.9391     1.6126 H       
  56 H56            0.9424     4.7649     2.5966 H       
  57 H57            2.9169     5.3553     6.3322 H       
  58 H58            5.3234     4.3490    -1.0878 H       
  59 H59            7.0689     4.1545    -1.3774 H       
  60 H60            5.8942     3.3743    -2.4635 H       
  61 H61            6.1172     4.8473     7.3505 H       
@<TRIPOS>BOND
   1    1    2 2
   2    1    6 1
   3    1   37 1
   4    2    3 1
   5    2   13 1
   6    3    4 am
   7    3   12 2
   8    4    5 1
   9    4    7 1
  10    5    6 2
  11    5   10 1
  12    6   38 1
  13    7    8 1
  14    7   39 1
  15    7   40 1
  16    8    9 1
  17    8   41 1
  18    8   42 1
  19    9   10 am
  20    9   11 1
  21   10   19 2
  22   11   32 1
  23   11   20 1
  24   11   43 1
  25   13   14 1
  26   13   15 1
  27   14   17 2
  28   14   44 1
  29   15   16 2
  30   15   45 1
  31   16   17 1
  32   17   18 1
  33   18   46 1
  34   18   47 1
  35   18   48 1
  36   20   21 1
  37   20   24 1
  38   20   49 1
  39   21   22 1
  40   21   50 1
  41   21   51 1
  42   22   23 1
  43   22   52 1
  44   22   53 1
  45   23   24 1
  46   23   25 1
  47   23   54 1
  48   25   26 ar
  49   25   27 ar
  50   26   33 1
  51   26   30 ar
  52   27   28 ar
  53   27   55 1
  54   28   29 ar
  55   28   56 1
  56   29   30 ar
  57   29   31 1
  58   30   57 1
  59   32   58 1
  60   32   59 1
  61   32   60 1
  62   33   34 1
  63   34   35 1
  64   34   36 1
  65   34   61 1

#	End of record

