#	Name: ASD01840404
#	Creating user name:	WinNT
#	Creation time:	15. 06. 2019 19:37

#	Modifying user name:	WinNT
#	Modification time:	15. 06. 2019 19:37

#	Program:	/corina/corina34_cracker 3.40 0067  02.08.2006

@<TRIPOS>MOLECULE
ASD01840404
  54   57    0    0    0
SMALL
NO_CHARGES


@<TRIPOS>ATOM
   1 C1             0.2611     1.7552    -0.9980 C.ar    
   2 C2             0.3841     0.5320    -1.6195 C.ar    
   3 N3             1.4990    -0.1677    -1.4965 N.ar    
   4 N4             2.4999     0.2427    -0.8111 N.ar    
   5 C5             1.3546     2.2267    -0.2364 C.ar    
   6 C6             1.5104     3.4570     0.5171 C.2     
   7 C7             2.4928     1.4121    -0.1670 C.ar    
   8 S8             3.7250     2.1824     0.8223 S.3     
   9 C9             2.7118     3.5783     1.1344 C.2     
  10 C10           -0.9999     2.5697    -1.1313 C.3     
  11 C11           -0.7562    -0.0106    -2.4419 C.3     
  12 N12            0.5179     4.4243     0.5985 N.pl3   
  13 C13            3.1102     4.7236     1.9514 C.2     
  14 O14            2.3404     5.6527     2.1138 O.2     
  15 N15            4.3297     4.7507     2.5248 N.am    
  16 C16            4.7288     5.8982     3.3434 C.3     
  17 C17            4.2634     5.7217     4.8129 C.3     
  18 C18            5.2854     6.5661     5.6030 C.3     
  19 N19            6.4861     6.6952     4.7644 N.am    
  20 C20            6.2680     5.9533     3.5092 C.3     
  21 S21            7.8560     7.5357     5.1632 S.o2    
  22 C22            8.9312     6.4157     5.9963 C.ar    
  23 C23            9.8450     5.6709     5.2756 C.ar    
  24 C24           10.6911     4.7893     5.9320 C.ar    
  25 C25           10.6175     4.6578     7.3113 C.ar    
  26 C26            9.7023     5.4046     8.0272 C.ar    
  27 C27            8.8637     6.2869     7.3710 C.ar    
  28 O28           11.5904     4.0553     5.2253 O.3     
  29 C29           12.4295     3.1679     5.9672 C.3     
  30 O30            8.4940     7.8679     3.9377 O.2     
  31 O31            7.4654     8.5068     6.1243 O.2     
  32 H32           -1.6441     2.3852    -0.2716 H       
  33 H33           -0.7456     3.6287    -1.1742 H       
  34 H34           -1.5220     2.2841    -2.0445 H       
  35 H35           -0.6493     0.3210    -3.4747 H       
  36 H36           -0.7433    -1.1000    -2.4068 H       
  37 H37           -1.7008     0.3547    -2.0389 H       
  38 H38           -0.4028     4.1923     0.4002 H       
  39 H39            0.7452     5.3322     0.8537 H       
  40 H40            4.9430     4.0104     2.3954 H       
  41 H41            4.3471     6.8280     2.9216 H       
  42 H42            3.2546     6.1120     4.9475 H       
  43 H43            4.3158     4.6746     5.1110 H       
  44 H44            4.8701     7.5524     5.8101 H       
  45 H45            5.5378     6.0642     6.5370 H       
  46 H46            6.6775     4.9462     3.5878 H       
  47 H47            6.7211     6.4836     2.6715 H       
  48 H48            9.9001     5.7748     4.2020 H       
  49 H49           11.2750     3.9718     7.8247 H       
  50 H50            9.6443     5.3023     9.1008 H       
  51 H51            8.1520     6.8735     7.9331 H       
  52 H52           13.0176     3.7394     6.6854 H       
  53 H53           11.8124     2.4430     6.4980 H       
  54 H54           13.0986     2.6446     5.2843 H       
@<TRIPOS>BOND
   1    1    2 ar
   2    1    5 ar
   3    1   10 1
   4    2   11 1
   5    2    3 ar
   6    3    4 ar
   7    4    7 ar
   8    5    7 ar
   9    5    6 1
  10    6    9 2
  11    6   12 1
  12    7    8 1
  13    8    9 1
  14    9   13 1
  15   10   32 1
  16   10   33 1
  17   10   34 1
  18   11   35 1
  19   11   36 1
  20   11   37 1
  21   12   38 1
  22   12   39 1
  23   13   14 2
  24   13   15 am
  25   15   16 1
  26   15   40 1
  27   16   17 1
  28   16   20 1
  29   16   41 1
  30   17   18 1
  31   17   42 1
  32   17   43 1
  33   18   19 1
  34   18   44 1
  35   18   45 1
  36   19   20 1
  37   19   21 am
  38   20   46 1
  39   20   47 1
  40   21   22 1
  41   21   30 2
  42   21   31 2
  43   22   23 ar
  44   22   27 ar
  45   23   24 ar
  46   23   48 1
  47   24   25 ar
  48   24   28 1
  49   25   26 ar
  50   25   49 1
  51   26   27 ar
  52   26   50 1
  53   27   51 1
  54   28   29 1
  55   29   52 1
  56   29   53 1
  57   29   54 1

#	End of record

