#	Name: ASD02560131
#	Creating user name:	WinNT
#	Creation time:	15. 06. 2019 20:24

#	Modifying user name:	WinNT
#	Modification time:	15. 06. 2019 20:24

#	Program:	/corina/corina34_cracker 3.40 0067  02.08.2006

@<TRIPOS>MOLECULE
ASD02560131
  53   57    0    0    0
SMALL
NO_CHARGES


@<TRIPOS>ATOM
   1 N1             0.0621     1.3496     0.0655 N.2     
   2 N2            -0.0032     0.1190    -0.0154 N.2     
   3 C3             1.4573     1.8081     0.0750 C.3     
   4 N4             2.2530     0.5928     0.3825 N.3     
   5 C5             1.3358    -0.4813    -0.0754 C.3     
   6 S6             1.4364    -1.9132     1.0336 S.3     
   7 C7             0.9399    -1.2238     2.6363 C.3     
   8 C8             0.9730    -2.3086     3.6818 C.2     
   9 O9             1.2995    -3.4359     3.3759 O.2     
  10 N10            0.6399    -2.0261     4.9569 N.am    
  11 Br11           1.9546     2.5243    -1.6871 Br      
  12 C12            3.4418     0.5774    -0.3437 C.ar    
  13 C13            0.5913    -3.0494     5.9107 C.ar    
  14 C14           -0.2320    -2.9255     7.0238 C.ar    
  15 C15           -0.2776    -3.9381     7.9631 C.ar    
  16 C16            0.4946    -5.0732     7.7960 C.ar    
  17 C17            1.3142    -5.1989     6.6898 C.ar    
  18 C18            1.3607    -4.1927     5.7442 C.ar    
  19 Cl19          -1.2009    -1.5006     7.2340 Cl      
  20 S20            0.4340    -6.3619     8.9961 S.o2    
  21 O21            1.6567    -7.0765     8.8796 O.2     
  22 O22           -0.0029    -5.7617    10.2078 O.2     
  23 C23            4.6851     0.7315     0.3056 C.ar    
  24 C24            3.4293     0.4051    -1.7150 C.ar    
  25 C25            4.6023     0.3844    -2.4695 C.ar    
  26 C26            5.8146     0.5351    -1.8666 C.ar    
  27 C27            5.8463     0.7051    -0.4858 C.ar    
  28 C28            7.1223     0.8513     0.0497 C.ar    
  29 C29            7.2350     1.0226     1.3956 C.ar    
  30 C30            6.0945     1.0481     2.2013 C.ar    
  31 C31            4.8365     0.9096     1.6888 C.ar    
  32 C32            7.2421     0.5618    -2.3576 C.3     
  33 C33            8.1040     0.7741    -1.0941 C.3     
  34 N34           -0.7643    -7.4070     8.5332 N.am    
  35 H35            1.6035     2.5630     0.8475 H       
  36 H36            1.5749    -0.7743    -1.0977 H       
  37 H37            1.6280    -0.4267     2.9178 H       
  38 H38           -0.0706    -0.8219     2.5616 H       
  39 H39            0.4338    -1.1136     5.2135 H       
  40 H40           -0.9166    -3.8428     8.8285 H       
  41 H41            1.9161    -6.0866     6.5627 H       
  42 H42            2.0013    -4.2919     4.8804 H       
  43 H43            2.4815     0.2823    -2.2181 H       
  44 H44            4.5491     0.2475    -3.5395 H       
  45 H45            8.2112     1.1390     1.8425 H       
  46 H46            6.2115     1.1854     3.2662 H       
  47 H47            3.9733     0.9335     2.3374 H       
  48 H48            7.4956    -0.3854    -2.8338 H       
  49 H49            7.3862     1.3867    -3.0553 H       
  50 H50            8.6698     1.7023    -1.1744 H       
  51 H51            8.7791    -0.0696    -0.9512 H       
  52 H52           -1.2734    -7.2341     7.7259 H       
  53 H53           -0.9571    -8.1920     9.0694 H       
@<TRIPOS>BOND
   1    1    2 2
   2    1    3 1
   3    2    5 1
   4    3    4 1
   5    3   11 1
   6    3   35 1
   7    4    5 1
   8    4   12 1
   9    5    6 1
  10    5   36 1
  11    6    7 1
  12    7    8 1
  13    7   37 1
  14    7   38 1
  15    8    9 2
  16    8   10 am
  17   10   13 1
  18   10   39 1
  19   12   23 ar
  20   12   24 ar
  21   13   14 ar
  22   13   18 ar
  23   14   15 ar
  24   14   19 1
  25   15   16 ar
  26   15   40 1
  27   16   17 ar
  28   16   20 1
  29   17   18 ar
  30   17   41 1
  31   18   42 1
  32   20   21 2
  33   20   22 2
  34   20   34 am
  35   23   27 ar
  36   23   31 ar
  37   24   25 ar
  38   24   43 1
  39   25   26 ar
  40   25   44 1
  41   26   27 ar
  42   26   32 1
  43   27   28 ar
  44   28   29 ar
  45   28   33 1
  46   29   30 ar
  47   29   45 1
  48   30   31 ar
  49   30   46 1
  50   31   47 1
  51   32   33 1
  52   32   48 1
  53   32   49 1
  54   33   50 1
  55   33   51 1
  56   34   52 1
  57   34   53 1

#	End of record

