#	Name: ASD00510006
#	Creating user name:	WinNT
#	Creation time:	15. 06. 2019 18:36

#	Modifying user name:	WinNT
#	Modification time:	15. 06. 2019 18:36

#	Program:	/corina/corina34_cracker 3.40 0067  02.08.2006

@<TRIPOS>MOLECULE
ASD00510006
  35   38    0    0    0
SMALL
NO_CHARGES


@<TRIPOS>ATOM
   1 C1            -0.0178     1.4591     0.0101 C.ar    
   2 C2             0.0089     0.0111    -0.1992 C.ar    
   3 C3             1.2601    -0.6512    -0.2106 C.ar    
   4 C4             2.4627     0.1618    -0.0107 C.ar    
   5 C5             2.3120     1.5558     0.1819 C.ar    
   6 N6             1.0980     2.1286     0.1836 N.ar    
   7 C7             3.7345    -0.4156    -0.0078 C.ar    
   8 C8             4.8386     0.3601     0.1809 C.ar    
   9 C9             4.7106     1.7439     0.3740 C.ar    
  10 C10            3.4584     2.3412     0.3745 C.ar    
  11 C11           -1.3132     2.1758     0.0201 C.ar    
  12 C12           -2.4009     1.6463     0.7142 C.ar    
  13 C13           -3.6066     2.3200     0.7200 C.ar    
  14 C14           -3.7359     3.5182     0.0386 C.ar    
  15 C15           -2.6600     4.0476    -0.6515 C.ar    
  16 C16           -1.4492     3.3865    -0.6601 C.ar    
  17 C17           -1.1455    -0.7519    -0.3886 C.ar    
  18 C18           -1.0139    -2.1010    -0.5759 C.ar    
  19 N19            0.1688    -2.6922    -0.5812 N.ar    
  20 C20            1.2940    -2.0295    -0.4083 C.ar    
  21 C21            5.9176     2.5706     0.5783 C.2     
  22 O22            5.8117     3.7690     0.7458 O.2     
  23 O23            7.1358     1.9955     0.5787 O.3     
  24 Cl24          -4.9622     1.6630     1.5827 Cl      
  25 H25            3.8431    -1.4799    -0.1553 H       
  26 H26            5.8188    -0.0933     0.1822 H       
  27 H27            3.3664     3.4069     0.5238 H       
  28 H28           -2.3007     0.7114     1.2457 H       
  29 H29           -4.6806     4.0415     0.0455 H       
  30 H30           -2.7670     4.9827    -1.1811 H       
  31 H31           -0.6090     3.8034    -1.1956 H       
  32 H32           -2.1205    -0.2874    -0.3869 H       
  33 H33           -1.9007    -2.6996    -0.7232 H       
  34 H34            2.2388    -2.5525    -0.4203 H       
  35 H35            7.8959     2.5772     0.7162 H       
@<TRIPOS>BOND
   1    1    2 ar
   2    1    6 ar
   3    1   11 1
   4    2    3 ar
   5    2   17 ar
   6    3    4 ar
   7    3   20 ar
   8    4    7 ar
   9    4    5 ar
  10    5    6 ar
  11    5   10 ar
  12    7    8 ar
  13    7   25 1
  14    8    9 ar
  15    8   26 1
  16    9   10 ar
  17    9   21 1
  18   10   27 1
  19   11   12 ar
  20   11   16 ar
  21   12   13 ar
  22   12   28 1
  23   13   14 ar
  24   13   24 1
  25   14   15 ar
  26   14   29 1
  27   15   16 ar
  28   15   30 1
  29   16   31 1
  30   17   18 ar
  31   17   32 1
  32   18   19 ar
  33   18   33 1
  34   19   20 ar
  35   20   34 1
  36   21   22 2
  37   21   23 1
  38   23   35 1

#	End of record

