#	Name: ASD04590763
#	Creating user name:	WinNT
#	Creation time:	15. 06. 2019 20:51

#	Modifying user name:	WinNT
#	Modification time:	15. 06. 2019 20:51

#	Program:	/corina/corina34_cracker 3.40 0067  02.08.2006

@<TRIPOS>MOLECULE
ASD04590763
  60   65    0    0    0
SMALL
NO_CHARGES


@<TRIPOS>ATOM
   1 N1            -0.0171     1.3232    -0.0119 N.ar    
   2 C2             0.0017    -0.0035    -0.0051 C.ar    
   3 N3             1.1297    -0.6949    -0.0122 N.ar    
   4 C4             2.3049    -0.0728    -0.0266 C.ar    
   5 C5             2.3189     1.3367    -0.0341 C.ar    
   6 C6             1.1071     2.0203    -0.0262 C.ar    
   7 N7             3.6028    -0.5190    -0.0374 N.pl3   
   8 C8             4.4816     0.5512    -0.0518 C.ar    
   9 C9             3.7311     1.7388    -0.0504 C.ar    
  10 C10            5.8704     0.6464    -0.0662 C.ar    
  11 N11            6.4580     1.8274    -0.0778 N.ar    
  12 C12            5.7743     2.9588    -0.0768 C.ar    
  13 C13            4.4066     2.9599    -0.0639 C.ar    
  14 C14            4.0022    -1.9285    -0.0336 C.3     
  15 N15           -1.2023    -0.6889     0.0103 N.pl3   
  16 C16           -2.3999     0.0104     0.1310 C.ar    
  17 N17           -2.3781     1.3188     0.3317 N.ar    
  18 C18           -3.4900     2.0192     0.4512 C.ar    
  19 C19           -4.7246     1.4068     0.3704 C.ar    
  20 C20           -4.7911     0.0356     0.1606 C.ar    
  21 C21           -3.6087    -0.6709     0.0341 C.ar    
  22 S22           -6.2008     2.3550     0.5325 S.o2    
  23 N23           -6.6285     2.8594    -0.9857 N.am    
  24 C24            3.4627    -2.6258     1.2275 C.3     
  25 C25            2.5298    -3.7545     0.7420 C.3     
  26 C26            3.0213    -4.0621    -0.6943 C.3     
  27 C27            3.3783    -2.6577    -1.2414 C.3     
  28 C28           -7.5126     2.0429    -1.8313 C.3     
  29 C29           -8.6543     2.9293    -2.3403 C.3     
  30 N30           -8.0923     4.1180    -2.9953 N.3     
  31 C31           -7.3304     4.9397    -2.0454 C.3     
  32 C32           -6.1394     4.1386    -1.5220 C.3     
  33 O33           -7.2132     1.4522     0.9555 O.2     
  34 O34           -5.8488     3.5242     1.2594 O.2     
  35 F35            6.6206    -0.4772    -0.0679 F       
  36 H36            1.0847     3.1000    -0.0312 H       
  37 H37            6.3052     3.8993    -0.0863 H       
  38 H38            3.8584     3.8904    -0.0632 H       
  39 H39            5.0887    -2.0085    -0.0686 H       
  40 H40           -1.2108    -1.6561    -0.0630 H       
  41 H41           -3.4335     3.0852     0.6146 H       
  42 H42           -5.7447    -0.4671     0.0941 H       
  43 H43           -3.6238    -1.7383    -0.1298 H       
  44 H44            4.2873    -3.0450     1.8041 H       
  45 H45            2.9037    -1.9155     1.8367 H       
  46 H46            2.6329    -4.6343     1.3771 H       
  47 H47            1.4946    -3.4135     0.7262 H       
  48 H48            3.9023    -4.7034    -0.6720 H       
  49 H49            2.2262    -4.5164    -1.2856 H       
  50 H50            2.4802    -2.1396    -1.5776 H       
  51 H51            4.1007    -2.7372    -2.0538 H       
  52 H52           -6.9492     1.6496    -2.6775 H       
  53 H53           -7.9215     1.2196    -1.2456 H       
  54 H54           -9.2572     2.3705    -3.0560 H       
  55 H55           -9.2777     3.2371    -1.5008 H       
  56 H56           -7.5231     3.8594    -3.7873 H       
  57 H57           -6.9732     5.8390    -2.5473 H       
  58 H58           -7.9723     5.2196    -1.2101 H       
  59 H59           -5.6383     4.7003    -0.7336 H       
  60 H60           -5.4421     3.9445    -2.3370 H       
@<TRIPOS>BOND
   1    1    2 ar
   2    1    6 ar
   3    2    3 ar
   4    2   15 1
   5    3    4 ar
   6    4    5 ar
   7    4    7 1
   8    5    6 ar
   9    5    9 1
  10    6   36 1
  11    7    8 1
  12    7   14 1
  13    8    9 ar
  14    8   10 ar
  15    9   13 ar
  16   10   11 ar
  17   10   35 1
  18   11   12 ar
  19   12   13 ar
  20   12   37 1
  21   13   38 1
  22   14   24 1
  23   14   27 1
  24   14   39 1
  25   15   16 1
  26   15   40 1
  27   16   17 ar
  28   16   21 ar
  29   17   18 ar
  30   18   19 ar
  31   18   41 1
  32   19   20 ar
  33   19   22 1
  34   20   21 ar
  35   20   42 1
  36   21   43 1
  37   22   33 2
  38   22   34 2
  39   22   23 am
  40   23   28 1
  41   23   32 1
  42   24   25 1
  43   24   44 1
  44   24   45 1
  45   25   26 1
  46   25   46 1
  47   25   47 1
  48   26   27 1
  49   26   48 1
  50   26   49 1
  51   27   50 1
  52   27   51 1
  53   28   29 1
  54   28   52 1
  55   28   53 1
  56   29   30 1
  57   29   54 1
  58   29   55 1
  59   30   31 1
  60   30   56 1
  61   31   32 1
  62   31   57 1
  63   31   58 1
  64   32   59 1
  65   32   60 1

#	End of record

