#	Name: ASD05313099
#	Creating user name:	WinNT
#	Creation time:	15. 06. 2019 20:58

#	Modifying user name:	WinNT
#	Modification time:	15. 06. 2019 20:58

#	Program:	/corina/corina34_cracker 3.40 0067  02.08.2006

@<TRIPOS>MOLECULE
ASD05313099
  38   41    0    0    0
SMALL
NO_CHARGES


@<TRIPOS>ATOM
   1 C1            -0.0724     0.8186     1.0226 C.2     
   2 C2             0.1135    -0.6179     0.5957 C.3     
   3 N3             0.9306     1.7319     1.0488 N.pl3   
   4 N4             1.4568    -0.7178    -0.0057 N.am    
   5 C5             2.5711    -0.0363     0.6704 C.3     
   6 C6             2.3173     1.4758     0.6632 C.3     
   7 N7            -0.9038     2.6421     1.7056 N.2     
   8 N8            -1.1570     1.4100     1.4246 N.2     
   9 C9             0.3723     2.8918     1.4925 C.2     
  10 C10            1.0652     4.1822     1.6986 C.ar    
  11 C11            0.3483     5.2859     2.1614 C.ar    
  12 C12            1.0094     6.4862     2.3500 C.ar    
  13 C13            2.3696     6.5456     2.0693 C.ar    
  14 C14            3.0187     5.4100     1.6124 C.ar    
  15 N15            2.3653     4.2787     1.4467 N.ar    
  16 F16            3.0516     7.6993     2.2399 F       
  17 C17            1.6574    -1.4141    -1.1421 C.2     
  18 O18            2.7493    -1.4039    -1.6765 O.2     
  19 C19            0.5506    -2.1896    -1.7381 C.ar    
  20 C20            0.3192    -2.1374    -3.1156 C.ar    
  21 C21           -0.7171    -2.8648    -3.6659 C.ar    
  22 C22           -1.5256    -3.6443    -2.8560 C.ar    
  23 C23           -1.3006    -3.6997    -1.4902 C.ar    
  24 C24           -0.2654    -2.9825    -0.9288 C.ar    
  25 Cl25          -2.8272    -4.5558    -3.5551 Cl      
  26 Cl26           1.3319    -1.1599    -4.1317 Cl      
  27 H27            0.0440    -1.2755     1.4622 H       
  28 H28           -0.6443    -0.8885    -0.1396 H       
  29 H29            2.6427    -0.3884     1.6995 H       
  30 H30            3.5019    -0.2518     0.1456 H       
  31 H31            2.4959     1.8701    -0.3372 H       
  32 H32            2.9880     1.9614     1.3721 H       
  33 H33           -0.7083     5.2043     2.3693 H       
  34 H34            0.4807     7.3576     2.7069 H       
  35 H35            4.0754     5.4522     1.3929 H       
  36 H36           -0.8978    -2.8255    -4.7299 H       
  37 H37           -1.9349    -4.3097    -0.8641 H       
  38 H38           -0.0886    -3.0308     0.1355 H       
@<TRIPOS>BOND
   1    1    2 1
   2    1    3 1
   3    1    8 2
   4    2    4 1
   5    2   27 1
   6    2   28 1
   7    3    6 1
   8    3    9 1
   9    4    5 1
  10    4   17 am
  11    5    6 1
  12    5   29 1
  13    5   30 1
  14    6   31 1
  15    6   32 1
  16    7    8 1
  17    7    9 2
  18    9   10 1
  19   10   11 ar
  20   10   15 ar
  21   11   12 ar
  22   11   33 1
  23   12   13 ar
  24   12   34 1
  25   13   14 ar
  26   13   16 1
  27   14   15 ar
  28   14   35 1
  29   17   18 2
  30   17   19 1
  31   19   20 ar
  32   19   24 ar
  33   20   21 ar
  34   20   26 1
  35   21   22 ar
  36   21   36 1
  37   22   23 ar
  38   22   25 1
  39   23   24 ar
  40   23   37 1
  41   24   38 1

#	End of record

