#	Name: ASD01915770
#	Creating user name:	WinNT
#	Creation time:	15. 06. 2019 20:06

#	Modifying user name:	WinNT
#	Modification time:	15. 06. 2019 20:06

#	Program:	/corina/corina34_cracker 3.40 0067  02.08.2006

@<TRIPOS>MOLECULE
ASD01915770
  41   44    0    0    0
SMALL
NO_CHARGES


@<TRIPOS>ATOM
   1 C1            -0.0042     1.4683     0.2343 C.2     
   2 N2             0.0660     0.1188    -0.0301 N.pl3   
   3 C3            -1.1432    -0.6640    -0.3123 C.3     
   4 C4            -2.3281    -0.0486     0.4302 C.3     
   5 N5            -2.4044     1.3988     0.2638 N.am    
   6 C6            -1.2934     2.1741     0.2857 C.2     
   7 C7             1.2764     1.9056     0.4249 C.2     
   8 C8             2.0758     0.7646     0.2730 C.2     
   9 N9             1.2862    -0.2508     0.0107 N.2     
  10 C10            3.5773     0.7125     0.3901 C.3     
  11 O11            4.0778     2.0184     0.6838 O.3     
  12 C12            5.4236     2.1466     0.8224 C.ar    
  13 O13           -1.3588     3.3874     0.3446 O.2     
  14 C14            5.9778     3.3860     1.1078 C.ar    
  15 C15            6.2451     1.0373     0.6843 C.ar    
  16 C16            7.6129     1.1702     0.8256 C.ar    
  17 C17            8.1632     2.4076     1.1044 C.ar    
  18 C18            7.3461     3.5137     1.2482 C.ar    
  19 C19           -3.6541     2.0003     0.0771 C.ar    
  20 C20           -3.9668     2.5905    -1.1404 C.ar    
  21 C21           -4.5855     2.0028     1.1072 C.ar    
  22 C22           -5.8183     2.5965     0.9207 C.ar    
  23 C23           -6.1261     3.1891    -0.2924 C.ar    
  24 C24           -5.2009     3.1832    -1.3227 C.ar    
  25 F25           -7.3328     3.7694    -0.4728 F       
  26 F26           -1.3969    -0.6519    -1.6880 F       
  27 H27           -0.9980    -1.6912     0.0223 H       
  28 H28           -3.2490    -0.4952     0.0554 H       
  29 H29           -2.2352    -0.2765     1.4920 H       
  30 H30            1.6017     2.9118     0.6442 H       
  31 H31            3.8558     0.0281     1.1914 H       
  32 H32            4.0032     0.3633    -0.5505 H       
  33 H33            5.3400     4.2504     1.2198 H       
  34 H34            5.8157     0.0705     0.4668 H       
  35 H35            8.2528     0.3068     0.7185 H       
  36 H36            9.2327     2.5095     1.2145 H       
  37 H37            7.7784     4.4793     1.4656 H       
  38 H38           -3.2454     2.5864    -1.9441 H       
  39 H39           -4.3459     1.5404     2.0534 H       
  40 H40           -6.5431     2.5984     1.7215 H       
  41 H41           -5.4429     3.6459    -2.2680 H       
@<TRIPOS>BOND
   1    1    2 1
   2    1    7 2
   3    1    6 1
   4    2    3 1
   5    2    9 1
   6    3    4 1
   7    3   26 1
   8    3   27 1
   9    4    5 1
  10    4   28 1
  11    4   29 1
  12    5    6 am
  13    5   19 1
  14    6   13 2
  15    7    8 1
  16    7   30 1
  17    8    9 2
  18    8   10 1
  19   10   11 1
  20   10   31 1
  21   10   32 1
  22   11   12 1
  23   12   14 ar
  24   12   15 ar
  25   14   18 ar
  26   14   33 1
  27   15   16 ar
  28   15   34 1
  29   16   17 ar
  30   16   35 1
  31   17   18 ar
  32   17   36 1
  33   18   37 1
  34   19   21 ar
  35   19   20 ar
  36   20   24 ar
  37   20   38 1
  38   21   22 ar
  39   21   39 1
  40   22   23 ar
  41   22   40 1
  42   23   24 ar
  43   23   25 1
  44   24   41 1

#	End of record

