#	Name: ASD01141028
#	Creating user name:	WinNT
#	Creation time:	15. 06. 2019 19:01

#	Modifying user name:	WinNT
#	Modification time:	15. 06. 2019 19:01

#	Program:	/corina/corina34_cracker 3.40 0067  02.08.2006

@<TRIPOS>MOLECULE
ASD01141028
  48   50    0    0    0
SMALL
NO_CHARGES


@<TRIPOS>ATOM
   1 C1            -0.0168     1.3860     0.0097 C.ar    
   2 C2             0.0021    -0.0041     0.0020 C.ar    
   3 C3             1.1799     2.0934     0.0020 C.ar    
   4 O4            -1.2032     2.0522     0.0189 O.3     
   5 C5             1.2133    -0.6790    -0.0132 C.ar    
   6 C6             2.3867     1.4105    -0.0132 C.ar    
   7 O7             1.1671     3.4530     0.0090 O.3     
   8 C8            -1.7288     2.3440     1.2188 C.2     
   9 C9             2.4009     0.0284    -0.0203 C.ar    
  10 C10           -3.0406     3.0804     1.3079 C.3     
  11 O11           -1.1483     2.0152     2.2309 O.2     
  12 N12           -3.3971     3.2767     2.7194 N.3     
  13 H13           -2.9469     4.0499     0.8186 H       
  14 C14            2.4341     4.1138     0.0005 C.3     
  15 O15           -1.1655    -0.7008     0.0099 O.3     
  16 C16           -1.0702    -2.1266     0.0013 C.3     
  17 C17           -2.3672     4.0610     3.4193 C.3     
  18 C18           -2.9457     4.5440     4.7496 C.3     
  19 C19           -3.5613     3.3866     5.4935 C.ar    
  20 C20           -3.8684     2.2012     4.8609 C.ar    
  21 C21           -3.6008     1.9906     3.3937 C.3     
  22 C22           -3.8202     3.5335     6.8479 C.ar    
  23 C23           -4.3855     2.4991     7.5661 C.ar    
  24 C24           -4.6960     1.3105     6.9316 C.ar    
  25 C25           -4.4386     1.1633     5.5837 C.ar    
  26 C26           -4.1325     2.2628     0.6150 C.3     
  27 H27            1.2289    -1.7589    -0.0191 H       
  28 H28            3.3168     1.9594    -0.0191 H       
  29 H29            3.3425    -0.5004    -0.0314 H       
  30 H30            2.2811     5.1930     0.0074 H       
  31 H31            3.0021     3.8218     0.8837 H       
  32 H32            2.9855     3.8308    -0.8961 H       
  33 H33           -0.5421    -2.4501    -0.8957 H       
  34 H34           -0.5245    -2.4596     0.8841 H       
  35 H35           -2.0713    -2.5577     0.0089 H       
  36 H36           -1.4940     3.4356     3.6052 H       
  37 H37           -2.0835     4.9192     2.8102 H       
  38 H38           -2.1498     4.9799     5.3534 H       
  39 H39           -3.7086     5.2989     4.5596 H       
  40 H40           -4.4503     1.4779     2.9424 H       
  41 H41           -2.7085     1.3760     3.2748 H       
  42 H42           -3.5781     4.4620     7.3435 H       
  43 H43           -4.5844     2.6177     8.6210 H       
  44 H44           -5.1390     0.4989     7.4896 H       
  45 H45           -4.6816     0.2346     5.0889 H       
  46 H46           -5.0813     2.7954     0.6794 H       
  47 H47           -3.8680     2.1171    -0.4323 H       
  48 H48           -4.2261     1.2933     1.1043 H       
@<TRIPOS>BOND
   1    1    2 ar
   2    1    3 ar
   3    1    4 1
   4    2    5 ar
   5    2   15 1
   6    3    6 ar
   7    3    7 1
   8    4    8 1
   9    5    9 ar
  10    5   27 1
  11    6    9 ar
  12    6   28 1
  13    7   14 1
  14    8   10 1
  15    8   11 2
  16    9   29 1
  17   10   13 1
  18   10   26 1
  19   10   12 1
  20   12   17 1
  21   12   21 1
  22   14   30 1
  23   14   31 1
  24   14   32 1
  25   15   16 1
  26   16   33 1
  27   16   34 1
  28   16   35 1
  29   17   18 1
  30   17   36 1
  31   17   37 1
  32   18   19 1
  33   18   38 1
  34   18   39 1
  35   19   20 ar
  36   19   22 ar
  37   20   21 1
  38   20   25 ar
  39   21   40 1
  40   21   41 1
  41   22   23 ar
  42   22   42 1
  43   23   24 ar
  44   23   43 1
  45   24   25 ar
  46   24   44 1
  47   25   45 1
  48   26   46 1
  49   26   47 1
  50   26   48 1

#	End of record

