#	Name: ASD01884956
#	Creating user name:	WinNT
#	Creation time:	15. 06. 2019 19:49

#	Modifying user name:	WinNT
#	Modification time:	15. 06. 2019 19:49

#	Program:	/corina/corina34_cracker 3.40 0067  02.08.2006

@<TRIPOS>MOLECULE
ASD01884956
  47   51    0    0    0
SMALL
NO_CHARGES


@<TRIPOS>ATOM
   1 C1             0.0395     1.4368    -0.2846 C.ar    
   2 C2             0.1459     0.1523    -0.7779 C.ar    
   3 C3            -0.9331    -0.4279    -1.4457 C.ar    
   4 C4            -2.1154     0.2925    -1.6124 C.ar    
   5 C5            -2.2158     1.5760    -1.1171 C.ar    
   6 C6            -1.1436     2.1497    -0.4485 C.ar    
   7 C7            -0.8227    -1.8063    -1.9772 C.2     
   8 C8            -1.6136    -2.8184    -1.4637 C.2     
   9 C9             0.0894    -2.0999    -3.0200 C.2     
  10 C10            0.1883    -3.3529    -3.5015 C.2     
  11 N11           -0.5842    -4.3597    -2.9971 N.pl3   
  12 C12           -1.4855    -4.1165    -1.9891 C.2     
  13 Cl13          -2.7466    -2.4912    -0.1897 Cl      
  14 C14           -0.6943    -5.6867    -3.2816 C.2     
  15 N15           -1.6015    -6.1871    -2.4831 N.2     
  16 N16           -2.0764    -5.2697    -1.7160 N.2     
  17 C17            0.0863    -6.4413    -4.3268 C.3     
  18 O18           -1.2461     3.4145     0.0381 O.3     
  19 C19           -2.4479     4.0380    -0.0563 C.ar    
  20 F20            1.0831     2.0001     0.3627 F       
  21 C21           -3.4000     3.9103     0.9521 C.ar    
  22 C22           -4.6099     4.5601     0.8186 C.ar    
  23 N23           -4.8693     5.2939    -0.2470 N.ar    
  24 C24           -3.9932     5.4391    -1.2233 C.ar    
  25 C25           -2.7585     4.8268    -1.1619 C.ar    
  26 C26           -4.3435     6.2894    -2.4171 C.3     
  27 C27            1.3721    -6.9904    -3.7053 C.3     
  28 C28            2.2501    -7.8900    -4.5776 C.3     
  29 C29            2.7011    -6.4648    -4.2514 C.3     
  30 H30            1.0631    -0.4029    -0.6475 H       
  31 H31           -2.9520    -0.1541    -2.1292 H       
  32 H32           -3.1314     2.1338    -1.2466 H       
  33 H33            0.7078    -1.3154    -3.4307 H       
  34 H34            0.8872    -3.5648    -4.2971 H       
  35 H35           -0.5163    -7.2673    -4.7044 H       
  36 H36            0.3376    -5.7698    -5.1478 H       
  37 H37           -3.1942     3.3107     1.8265 H       
  38 H38           -5.3540     4.4667     1.5957 H       
  39 H39           -2.0460     4.9499    -1.9641 H       
  40 H40           -4.0376     7.3191    -2.2320 H       
  41 H41           -3.8262     5.9095    -3.2981 H       
  42 H42           -5.4200     6.2547    -2.5846 H       
  43 H43            1.3197    -7.2179    -2.6406 H       
  44 H44            2.7757    -8.7090    -4.0866 H       
  45 H45            1.9117    -8.0905    -5.5941 H       
  46 H46            2.6596    -5.7278    -5.0533 H       
  47 H47            3.5235    -6.3463    -3.5458 H       
@<TRIPOS>BOND
   1    1    2 ar
   2    1   20 1
   3    1    6 ar
   4    2    3 ar
   5    2   30 1
   6    3    4 ar
   7    3    7 1
   8    4    5 ar
   9    4   31 1
  10    5    6 ar
  11    5   32 1
  12    6   18 1
  13    7    8 2
  14    7    9 1
  15    8   13 1
  16    8   12 1
  17    9   10 2
  18    9   33 1
  19   10   11 1
  20   10   34 1
  21   11   12 1
  22   11   14 1
  23   12   16 2
  24   14   15 2
  25   14   17 1
  26   15   16 1
  27   17   27 1
  28   17   35 1
  29   17   36 1
  30   18   19 1
  31   19   21 ar
  32   19   25 ar
  33   21   22 ar
  34   21   37 1
  35   22   23 ar
  36   22   38 1
  37   23   24 ar
  38   24   25 ar
  39   24   26 1
  40   25   39 1
  41   26   40 1
  42   26   41 1
  43   26   42 1
  44   27   28 1
  45   27   29 1
  46   27   43 1
  47   28   29 1
  48   28   44 1
  49   28   45 1
  50   29   46 1
  51   29   47 1

#	End of record

