#	Name: ASD08070162
#	Creating user name:	WinNT
#	Creation time:	15. 06. 2019 21:14

#	Modifying user name:	WinNT
#	Modification time:	15. 06. 2019 21:14

#	Program:	/corina/corina34_cracker 3.40 0067  02.08.2006

@<TRIPOS>MOLECULE
ASD08070162
  44   46    0    0    0
SMALL
NO_CHARGES


@<TRIPOS>ATOM
   1 C1            -0.0167     1.3782     0.0096 C.ar    
   2 C2             0.0021    -0.0041     0.0020 C.ar    
   3 C3             1.2037    -0.6893    -0.0127 C.ar    
   4 C4             2.4030     0.0058    -0.0200 C.ar    
   5 C5             2.3946     1.4082    -0.0129 C.ar    
   6 C6             1.1705     2.0923     0.0021 C.ar    
   7 N7             4.2526     2.4940     1.1438 N.am    
   8 C8             3.6623     2.1572    -0.0200 C.2     
   9 C9             6.5193     1.2260     0.0960 C.ar    
  10 C10            6.6610     2.2728     0.9980 C.ar    
  11 C11            5.5139     3.2392     1.1367 C.3     
  12 C12            7.5365     0.3115    -0.0820 C.ar    
  13 C13            8.7080     0.4384     0.6414 C.ar    
  14 C14            8.8501     1.4765     1.5384 C.ar    
  15 C15            7.8252     2.3960     1.7222 C.ar    
  16 C16            8.0413     3.4954     2.7290 C.3     
  17 C17            7.0465     4.6323     2.5047 C.3     
  18 C18            5.6362     4.0349     2.4347 C.3     
  19 O19            4.1768     2.4718    -1.0762 O.2     
  20 O20            3.5806    -0.6681    -0.0336 O.3     
  21 Cl21           1.2098    -2.4252    -0.0215 Cl      
  22 O22            1.1489     3.4489     0.0087 O.3     
  23 C23           -0.1345     4.0772     0.0240 C.3     
  24 C24            4.1324    -0.9843    -1.3133 C.3     
  25 H25           -0.9603     1.9034     0.0169 H       
  26 H26           -0.9280    -0.5529     0.0080 H       
  27 H27            3.8423     2.2431     1.9862 H       
  28 H28            5.6034     1.1246    -0.4673 H       
  29 H29            5.5198     3.9278     0.2917 H       
  30 H30            7.4182    -0.5009    -0.7837 H       
  31 H31            9.5089    -0.2732     0.5048 H       
  32 H32            9.7657     1.5752     2.1026 H       
  33 H33            7.9079     3.0940     3.7336 H       
  34 H34            9.0560     3.8806     2.6283 H       
  35 H35            7.1048     5.3396     3.3320 H       
  36 H36            7.2762     5.1418     1.5688 H       
  37 H37            4.8972     4.8360     2.4452 H       
  38 H38            5.4746     3.3745     3.2867 H       
  39 H39           -0.6953     3.7797    -0.8620 H       
  40 H40           -0.6781     3.7713     0.9178 H       
  41 H41           -0.0089     5.1600     0.0279 H       
  42 H42            5.0715    -1.5217    -1.1812 H       
  43 H43            3.4313    -1.6087    -1.8670 H       
  44 H44            4.3154    -0.0638    -1.8676 H       
@<TRIPOS>BOND
   1    1    2 ar
   2    1    6 ar
   3    1   25 1
   4    2    3 ar
   5    2   26 1
   6    3    4 ar
   7    3   21 1
   8    4    5 ar
   9    4   20 1
  10    5    6 ar
  11    5    8 1
  12    6   22 1
  13    7    8 am
  14    7   11 1
  15    7   27 1
  16    8   19 2
  17    9   10 ar
  18    9   12 ar
  19    9   28 1
  20   10   11 1
  21   10   15 ar
  22   11   18 1
  23   11   29 1
  24   12   13 ar
  25   12   30 1
  26   13   14 ar
  27   13   31 1
  28   14   15 ar
  29   14   32 1
  30   15   16 1
  31   16   17 1
  32   16   33 1
  33   16   34 1
  34   17   18 1
  35   17   35 1
  36   17   36 1
  37   18   37 1
  38   18   38 1
  39   20   24 1
  40   22   23 1
  41   23   39 1
  42   23   40 1
  43   23   41 1
  44   24   42 1
  45   24   43 1
  46   24   44 1

#	End of record

