#	Name: ASD01870344
#	Creating user name:	WinNT
#	Creation time:	15. 06. 2019 19:39

#	Modifying user name:	WinNT
#	Modification time:	15. 06. 2019 19:39

#	Program:	/corina/corina34_cracker 3.40 0067  02.08.2006

@<TRIPOS>MOLECULE
ASD01870344
  47   51    0    0    0
SMALL
NO_CHARGES


@<TRIPOS>ATOM
   1 N1            -0.0179     1.4666     0.0101 N.am    
   2 C2             0.0021    -0.0041     0.0020 C.3     
   3 C3            -0.8912    -0.5093     1.1400 C.3     
   4 N4            -2.2247     0.0945     1.0165 N.3     
   5 C5            -2.1640     1.5549     1.1632 C.3     
   6 C6            -1.3228     2.1447     0.0324 C.3     
   7 C7            -3.1077    -0.4602     1.9296 C.2     
   8 N8            -4.3546    -0.1262     2.0544 N.2     
   9 C9             1.1293     2.1740     0.0030 C.2     
  10 C10            1.0857     3.6803     0.0115 C.3     
  11 O11            2.1967     1.5983    -0.0103 O.2     
  12 C12            2.4763     4.3407     0.0017 C.3     
  13 N13            1.9076     5.2908    -0.9739 N.am    
  14 C14            0.8907     4.3026    -1.3830 C.3     
  15 S15            2.2664     6.8425    -1.4275 S.o2    
  16 C16            3.4250     6.7442    -2.7514 C.ar    
  17 C17            4.7153     6.2017    -2.5267 C.ar    
  18 O18            1.0740     7.3858    -1.9773 O.2     
  19 O19            2.9563     7.4310    -0.3334 O.2     
  20 C20            3.0821     7.1820    -3.9871 C.ar    
  21 C21            3.9738     7.1194    -5.0579 C.ar    
  22 C22            5.2242     6.6179    -4.9118 C.ar    
  23 C23            5.6492     6.1363    -3.6480 C.ar    
  24 N24            6.8003     5.6102    -3.2617 N.2     
  25 S25            6.7235     5.2513    -1.7502 S.3     
  26 N26            5.2729     5.7127    -1.4308 N.2     
  27 C27           -5.0528    -0.7604     2.9795 C.2     
  28 C28           -4.3638    -1.6714     3.6671 C.2     
  29 S29           -2.7137    -1.6896     3.0504 S.3     
  30 H30           -0.3778    -0.3702    -0.9518 H       
  31 H31            1.0222    -0.3573     0.1529 H       
  32 H32           -0.9764    -1.5943     1.0812 H       
  33 H33           -0.4527    -0.2298     2.0980 H       
  34 H34           -3.1723     1.9669     1.1212 H       
  35 H35           -1.7078     1.8056     2.1209 H       
  36 H36           -1.1798     3.2121     0.2008 H       
  37 H37           -1.8275     1.9859    -0.9206 H       
  38 H38            0.4145     4.0817     0.7708 H       
  39 H39            2.7518     4.7987     0.9517 H       
  40 H40            3.2612     3.7060    -0.4094 H       
  41 H41            1.2098     3.6567    -2.2009 H       
  42 H42           -0.0998     4.7302    -1.5387 H       
  43 H43            2.0945     7.5888    -4.1468 H       
  44 H44            3.6601     7.4789    -6.0268 H       
  45 H45            5.8943     6.5809    -5.7579 H       
  46 H46           -6.0973    -0.5570     3.1641 H       
  47 H47           -4.7508    -2.2929     4.4611 H       
@<TRIPOS>BOND
   1    1    2 1
   2    1    9 am
   3    1    6 1
   4    2    3 1
   5    2   30 1
   6    2   31 1
   7    3    4 1
   8    3   32 1
   9    3   33 1
  10    4    5 1
  11    4    7 1
  12    5    6 1
  13    5   34 1
  14    5   35 1
  15    6   36 1
  16    6   37 1
  17    7    8 2
  18    7   29 1
  19    8   27 1
  20    9   10 1
  21    9   11 2
  22   10   12 1
  23   10   14 1
  24   10   38 1
  25   12   13 1
  26   12   39 1
  27   12   40 1
  28   13   14 1
  29   13   15 am
  30   14   41 1
  31   14   42 1
  32   15   16 1
  33   15   18 2
  34   15   19 2
  35   16   20 ar
  36   16   17 ar
  37   17   23 ar
  38   17   26 2
  39   20   21 ar
  40   20   43 1
  41   21   22 ar
  42   21   44 1
  43   22   23 ar
  44   22   45 1
  45   23   24 2
  46   24   25 1
  47   25   26 1
  48   27   28 2
  49   27   46 1
  50   28   29 1
  51   28   47 1

#	End of record

