#	Name: ASD04590920
#	Creating user name:	WinNT
#	Creation time:	15. 06. 2019 20:51

#	Modifying user name:	WinNT
#	Modification time:	15. 06. 2019 20:51

#	Program:	/corina/corina34_cracker 3.40 0067  02.08.2006

@<TRIPOS>MOLECULE
ASD04590920
  57   62    0    0    0
SMALL
NO_CHARGES


@<TRIPOS>ATOM
   1 N1             0.0804     1.3134     0.7595 N.ar    
   2 C2             0.1281    -0.0094     0.8516 C.ar    
   3 N3             1.2331    -0.6959     0.6093 N.ar    
   4 C4             2.3540    -0.0726     0.2584 C.ar    
   5 C5             2.3359     1.3327     0.1514 C.ar    
   6 C6             1.1505     2.0113     0.4163 C.ar    
   7 N7             3.6176    -0.5145    -0.0460 N.pl3   
   8 C8             4.4428     0.5537    -0.3528 C.ar    
   9 C9             3.6908     1.7372    -0.2450 C.ar    
  10 C10            5.7789     0.6493    -0.7195 C.ar    
  11 N11            6.3255     1.8237    -0.9600 N.ar    
  12 C12            5.6470     2.9538    -0.8676 C.ar    
  13 C13            4.3154     2.9553    -0.5103 C.ar    
  14 N14           -1.0189    -0.6958     1.2145 N.pl3   
  15 C15           -2.1654     0.0078     1.5831 C.ar    
  16 N16           -2.1198     1.3264     1.6829 N.ar    
  17 C17           -3.1795     2.0328     2.0284 C.ar    
  18 C18           -4.3883     1.4104     2.3014 C.ar    
  19 C19           -4.4746     0.0221     2.2066 C.ar    
  20 C20           -3.3449    -0.6841     1.8359 C.ar    
  21 N21           -5.5078     2.1666     2.6681 N.3     
  22 C22            4.0343    -1.9190    -0.0456 C.3     
  23 C23           -5.8804     1.9117     4.0667 C.3     
  24 C24           -6.6393     1.9029     1.7682 C.3     
  25 C25           -7.8145     2.8048     2.1528 C.3     
  26 N26           -8.1871     2.5499     3.5513 N.3     
  27 C27           -7.0556     2.8136     4.4512 C.3     
  28 C28            3.2257    -2.8012     0.9201 C.3     
  29 C29            3.4201    -2.7441    -1.1888 C.3     
  30 C30            2.2452    -3.0370    -0.2409 C.3     
  31 C31           -7.4723     2.5217     5.8942 C.3     
  32 H32            1.1049     3.0878     0.3432 H       
  33 H33            6.3752    -0.2468    -0.8080 H       
  34 H34            6.1430     3.8904    -1.0752 H       
  35 H35            3.7665     3.8825    -0.4370 H       
  36 H36           -1.0248    -1.6658     1.2124 H       
  37 H37           -3.1045     3.1078     2.0996 H       
  38 H38           -5.4030    -0.4893     2.4135 H       
  39 H39           -3.3760    -1.7604     1.7522 H       
  40 H40            5.1133    -2.0404     0.0496 H       
  41 H41           -6.1709     0.8674     4.1810 H       
  42 H42           -5.0304     2.1261     4.7143 H       
  43 H43           -6.3425     2.1108     0.7402 H       
  44 H44           -6.9384     0.8584     1.8565 H       
  45 H45           -7.5241     3.8491     2.0384 H       
  46 H46           -8.6646     2.5904     1.5051 H       
  47 H47           -8.9940     3.0949     3.8156 H       
  48 H48           -6.7566     3.8581     4.3629 H       
  49 H49            3.7537    -3.7012     1.2354 H       
  50 H50            2.7905    -2.2505     1.7541 H       
  51 H51            3.1420    -2.1472    -2.0575 H       
  52 H52            4.0013    -3.6284    -1.4502 H       
  53 H53            1.8797    -4.0621    -0.3024 H       
  54 H54            1.4461    -2.2977    -0.2945 H       
  55 H55           -7.7703     1.4769     5.9820 H       
  56 H56           -6.6329     2.7174     6.5614 H       
  57 H57           -8.3105     3.1628     6.1671 H       
@<TRIPOS>BOND
   1    1    2 ar
   2    1    6 ar
   3    2    3 ar
   4    2   14 1
   5    3    4 ar
   6    4    5 ar
   7    4    7 1
   8    5    6 ar
   9    5    9 1
  10    6   32 1
  11    7    8 1
  12    7   22 1
  13    8    9 ar
  14    8   10 ar
  15    9   13 ar
  16   10   11 ar
  17   10   33 1
  18   11   12 ar
  19   12   13 ar
  20   12   34 1
  21   13   35 1
  22   14   15 1
  23   14   36 1
  24   15   16 ar
  25   15   20 ar
  26   16   17 ar
  27   17   18 ar
  28   17   37 1
  29   18   19 ar
  30   18   21 1
  31   19   20 ar
  32   19   38 1
  33   20   39 1
  34   21   24 1
  35   21   23 1
  36   22   29 1
  37   22   28 1
  38   22   40 1
  39   23   27 1
  40   23   41 1
  41   23   42 1
  42   24   25 1
  43   24   43 1
  44   24   44 1
  45   25   26 1
  46   25   45 1
  47   25   46 1
  48   26   27 1
  49   26   47 1
  50   27   31 1
  51   27   48 1
  52   28   30 1
  53   28   49 1
  54   28   50 1
  55   29   30 1
  56   29   51 1
  57   29   52 1
  58   30   53 1
  59   30   54 1
  60   31   55 1
  61   31   56 1
  62   31   57 1

#	End of record

