#	Name: ASD03331477
#	Creating user name:	WinNT
#	Creation time:	15. 06. 2019 20:39

#	Modifying user name:	WinNT
#	Modification time:	15. 06. 2019 20:39

#	Program:	/corina/corina34_cracker 3.40 0067  02.08.2006

@<TRIPOS>MOLECULE
ASD03331477
  63   65    0    0    0
SMALL
NO_CHARGES


@<TRIPOS>ATOM
   1 C1             0.6464     0.9696     1.7692 C.ar    
   2 C2             0.5127    -0.4502     1.3761 C.2     
   3 N3            -0.5443    -1.2557     1.6590 N.pl3   
   4 C4            -0.2783    -2.4834     1.1260 C.2     
   5 C5             0.9343    -2.4047     0.5244 C.2     
   6 N6             1.3939    -1.1429     0.6896 N.2     
   7 C7             1.6245    -3.4953    -0.1867 C.2     
   8 N8             2.8334    -3.2788    -0.7418 N.am    
   9 C9            -0.1815     1.5031     2.7572 C.ar    
  10 O10            1.1032    -4.5907    -0.2728 O.2     
  11 C11            3.5196    -4.3631    -1.4487 C.3     
  12 C12            3.0279    -4.4193    -2.8965 C.3     
  13 C13            5.0055    -4.1122    -1.4322 C.2     
  14 C14            3.2383    -3.0568    -3.5598 C.3     
  15 C15           -1.7753    -0.9419     2.3897 C.3     
  16 C16           -2.8067    -2.0349     2.0811 C.3     
  17 N17           -2.2040    -3.3600     2.2826 N.3     
  18 C18           -1.2132    -3.6603     1.2332 C.3     
  19 C19            3.8146    -5.4858    -3.6612 C.3     
  20 O20            5.4299    -2.9976    -1.2124 O.2     
  21 N21            5.8627    -5.1266    -1.6618 N.am    
  22 C22           -0.0523     2.8295     3.1204 C.ar    
  23 C23            0.8987     3.6299     2.5033 C.ar    
  24 C24            1.7221     3.1031     1.5214 C.ar    
  25 C25            1.6050     1.7780     1.1569 C.ar    
  26 F26            1.0218     4.9269     2.8608 F       
  27 F27           -0.8529     3.3484     4.0769 F       
  28 C28            8.0475    -6.2096    -1.8495 C.3     
  29 C29            7.3061    -4.9079    -1.5387 C.3     
  30 C30           -3.2360    -4.4035     2.3463 C.3     
  31 C31           -4.0098    -1.8765     3.0128 C.3     
  32 F32            9.4258    -6.0008    -1.7320 F       
  33 C33            1.5392    -4.7718    -2.9162 C.3     
  34 H34            3.2492    -2.4051    -0.6731 H       
  35 H35           -0.9221     0.8804     3.2370 H       
  36 H36            3.3057    -5.3111    -0.9552 H       
  37 H37            4.2989    -2.8057    -3.5458 H       
  38 H38            2.8880    -3.0969    -4.5913 H       
  39 H39            2.6778    -2.2970    -3.0151 H       
  40 H40           -1.5721    -0.9196     3.4603 H       
  41 H41           -2.1579     0.0265     2.0671 H       
  42 H42           -3.1362    -1.9404     1.0464 H       
  43 H43           -1.7205    -3.8157     0.2810 H       
  44 H44           -0.6509    -4.5545     1.5022 H       
  45 H45            3.6769    -6.4539    -3.1796 H       
  46 H46            3.4540    -5.5364    -4.6885 H       
  47 H47            4.8734    -5.2268    -3.6601 H       
  48 H48            5.5240    -6.0014    -1.9085 H       
  49 H49            2.4602     3.7302     1.0436 H       
  50 H50            2.2477     1.3692     0.3913 H       
  51 H51            7.7358    -6.9821    -1.1465 H       
  52 H52            7.8135    -6.5273    -2.8656 H       
  53 H53            7.6178    -4.1354    -2.2417 H       
  54 H54            7.5401    -4.5902    -0.5226 H       
  55 H55           -3.8000    -4.4143     1.4136 H       
  56 H56           -2.7627    -5.3740     2.4959 H       
  57 H57           -3.9111    -4.1967     3.1768 H       
  58 H58           -4.4615    -0.8964     2.8596 H       
  59 H59           -4.7433    -2.6527     2.7944 H       
  60 H60           -3.6819    -1.9676     4.0484 H       
  61 H61            0.9787    -4.0120    -2.3714 H       
  62 H62            1.1889    -4.8118    -3.9476 H       
  63 H63            1.3893    -5.7425    -2.4436 H       
@<TRIPOS>BOND
   1    1    2 1
   2    1    9 ar
   3    1   25 ar
   4    2    3 1
   5    2    6 2
   6    3    4 1
   7    3   15 1
   8    4    5 2
   9    4   18 1
  10    5    6 1
  11    5    7 1
  12    7    8 am
  13    7   10 2
  14    8   11 1
  15    8   34 1
  16    9   22 ar
  17    9   35 1
  18   11   12 1
  19   11   13 1
  20   11   36 1
  21   12   14 1
  22   12   19 1
  23   12   33 1
  24   13   20 2
  25   13   21 am
  26   14   37 1
  27   14   38 1
  28   14   39 1
  29   15   16 1
  30   15   40 1
  31   15   41 1
  32   16   17 1
  33   16   31 1
  34   16   42 1
  35   17   18 1
  36   17   30 1
  37   18   43 1
  38   18   44 1
  39   19   45 1
  40   19   46 1
  41   19   47 1
  42   21   29 1
  43   21   48 1
  44   22   23 ar
  45   22   27 1
  46   23   24 ar
  47   23   26 1
  48   24   25 ar
  49   24   49 1
  50   25   50 1
  51   28   29 1
  52   28   32 1
  53   28   51 1
  54   28   52 1
  55   29   53 1
  56   29   54 1
  57   30   55 1
  58   30   56 1
  59   30   57 1
  60   31   58 1
  61   31   59 1
  62   31   60 1
  63   33   61 1
  64   33   62 1
  65   33   63 1

#	End of record

