#	Name: ASD00431381
#	Creating user name:	WinNT
#	Creation time:	15. 06. 2019 18:35

#	Modifying user name:	WinNT
#	Modification time:	15. 06. 2019 18:35

#	Program:	/corina/corina34_cracker 3.40 0067  02.08.2006

@<TRIPOS>MOLECULE
ASD00431381
  12   12    0    0    0
SMALL
NO_CHARGES


@<TRIPOS>ATOM
   1 S1            -0.0211     1.7051     0.0114 S.3     
   2 C2             0.0021    -0.0041     0.0020 C.2     
   3 N3             1.2208    -0.4392    -0.0120 N.2     
   4 C4             2.1800     0.4571    -0.0163 C.2     
   5 C5             1.7405     1.7401    -0.0052 C.2     
   6 C6             2.5810     2.9416    -0.0068 C.2     
   7 Cl7            3.8643     0.0366    -0.0346 Cl      
   8 Cl8           -1.4101    -1.0138     0.0110 Cl      
   9 N9             2.0322     4.1173     0.0052 N.2     
  10 O10            2.8439     5.2776     0.0037 O.3     
  11 H11            3.6569     2.8480    -0.0180 H       
  12 H12            2.3456     6.1062     0.0133 H       
@<TRIPOS>BOND
   1    1    2 1
   2    1    5 1
   3    2    3 2
   4    2    8 1
   5    3    4 1
   6    4    5 2
   7    4    7 1
   8    5    6 1
   9    6    9 2
  10    6   11 1
  11    9   10 1
  12   10   12 1

#	End of record

