#	Name: ASD01816454
#	Creating user name:	WinNT
#	Creation time:	15. 06. 2019 19:35

#	Modifying user name:	WinNT
#	Modification time:	15. 06. 2019 19:35

#	Program:	/corina/corina34_cracker 3.40 0067  02.08.2006

@<TRIPOS>MOLECULE
ASD01816454
  57   62    0    0    0
SMALL
NO_CHARGES


@<TRIPOS>ATOM
   1 C1            -0.0167     1.3813     0.0096 C.ar    
   2 C2             0.0021    -0.0041     0.0020 C.ar    
   3 C3             1.1984    -0.6909    -0.0127 C.ar    
   4 C4             2.4015     0.0059    -0.0200 C.ar    
   5 C5             2.3790     1.4106    -0.0127 C.ar    
   6 C6             1.1663     2.0916     0.0022 C.ar    
   7 N7             3.6054    -0.6773    -0.0338 N.pl3   
   8 C8             4.7971    -0.0587    -0.0409 C.2     
   9 C9             4.9000     1.3102    -0.0354 C.2     
  10 C10            3.6670     2.1301    -0.0207 C.2     
  11 C11            5.9971     2.2728    -0.0405 C.2     
  12 N12            5.4246     3.4960    -0.0302 N.am    
  13 N13            4.0324     3.3799    -0.0184 N.2     
  14 C14            6.1298     4.7135    -0.0300 C.2     
  15 O15            7.1917     2.0227    -0.0515 O.2     
  16 C16            3.5780    -2.1420    -0.0404 C.3     
  17 C17            3.5561    -2.6376    -1.4634 C.ar    
  18 C18            4.7441    -2.8869    -2.1256 C.ar    
  19 C19            4.7273    -3.3407    -3.4300 C.ar    
  20 C20            3.5159    -3.5470    -4.0761 C.ar    
  21 C21            2.3247    -3.2963    -3.4085 C.ar    
  22 C22            2.3479    -2.8475    -2.1024 C.ar    
  23 N23            3.4955    -4.0072    -5.4001 N.pl3   
  24 C24            2.3909    -4.2484    -6.1420 C.2     
  25 C25            2.7980    -4.6778    -7.3589 C.2     
  26 C26            4.1970    -4.7001    -7.3621 C.2     
  27 N27            4.6159    -4.2927    -6.1910 N.2     
  28 C28            6.5347     5.4347    -1.1634 C.2     
  29 N29            7.1620     6.5099    -0.7612 N.2     
  30 N30            7.1792     6.5126     0.6393 N.pl3   
  31 C31            6.5349     5.4036     1.0672 C.2     
  32 C32            6.3148     5.0009     2.5026 C.3     
  33 C33            6.2901     5.0385    -2.5967 C.3     
  34 F34            5.0727     5.5764    -3.0279 F       
  35 F35            7.3264     5.5278    -3.3991 F       
  36 F36            6.2440     3.6436    -2.6936 F       
  37 C37            7.7844     7.5395     1.4910 C.3     
  38 H38           -0.9602     1.9068     0.0170 H       
  39 H39           -0.9289    -0.5515     0.0080 H       
  40 H40            1.2004    -1.7709    -0.0181 H       
  41 H41            1.1506     3.1715     0.0074 H       
  42 H42            5.6983    -0.6537    -0.0509 H       
  43 H43            4.4655    -2.5243     0.4639 H       
  44 H44            2.6859    -2.4911     0.4797 H       
  45 H45            5.6862    -2.7262    -1.6225 H       
  46 H46            5.6555    -3.5345    -3.9469 H       
  47 H47            1.3808    -3.4555    -3.9086 H       
  48 H48            1.4216    -2.6523    -1.5825 H       
  49 H49            1.3676    -4.1217    -5.8206 H       
  50 H50            2.1563    -4.9544    -8.1824 H       
  51 H51            4.8234    -4.9978    -8.1900 H       
  52 H52            5.3750     5.4232     2.8585 H       
  53 H53            6.2744     3.9139     2.5730 H       
  54 H54            7.1358     5.3743     3.1147 H       
  55 H55            7.0454     8.3095     1.7126 H       
  56 H56            8.1258     7.0852     2.4211 H       
  57 H57            8.6322     7.9879     0.9730 H       
@<TRIPOS>BOND
   1    1    2 ar
   2    1    6 ar
   3    1   38 1
   4    2    3 ar
   5    2   39 1
   6    3    4 ar
   7    3   40 1
   8    4    5 ar
   9    4    7 1
  10    5    6 ar
  11    5   10 1
  12    6   41 1
  13    7    8 1
  14    7   16 1
  15    8    9 2
  16    8   42 1
  17    9   10 1
  18    9   11 1
  19   10   13 2
  20   11   12 am
  21   11   15 2
  22   12   13 1
  23   12   14 1
  24   14   28 1
  25   14   31 2
  26   16   17 1
  27   16   43 1
  28   16   44 1
  29   17   18 ar
  30   17   22 ar
  31   18   19 ar
  32   18   45 1
  33   19   20 ar
  34   19   46 1
  35   20   21 ar
  36   20   23 1
  37   21   22 ar
  38   21   47 1
  39   22   48 1
  40   23   24 1
  41   23   27 1
  42   24   25 2
  43   24   49 1
  44   25   26 1
  45   25   50 1
  46   26   27 2
  47   26   51 1
  48   28   29 2
  49   28   33 1
  50   29   30 1
  51   30   31 1
  52   30   37 1
  53   31   32 1
  54   32   52 1
  55   32   53 1
  56   32   54 1
  57   33   34 1
  58   33   35 1
  59   33   36 1
  60   37   55 1
  61   37   56 1
  62   37   57 1

#	End of record

