#	Name: ASD01410808
#	Creating user name:	WinNT
#	Creation time:	15. 06. 2019 19:18

#	Modifying user name:	WinNT
#	Modification time:	15. 06. 2019 19:18

#	Program:	/corina/corina34_cracker 3.40 0067  02.08.2006

@<TRIPOS>MOLECULE
ASD01410808
  73   76    0    0    0
SMALL
NO_CHARGES


@<TRIPOS>ATOM
   1 C1            -0.5514    -0.2583     0.9530 C.ar    
   2 C2            -1.8747    -2.0220    -0.0029 C.ar    
   3 C3            -2.7846    -1.0882    -0.4788 C.ar    
   4 C4            -2.5798     0.2766    -0.2247 C.ar    
   5 C5            -1.4514     0.6845     0.4906 C.ar    
   6 O6             0.5442     0.1375     1.6542 O.3     
   7 C7             0.3539     0.6593     2.8920 C.ar    
   8 N8            -3.9042    -1.5056    -1.1970 N.am    
   9 C9            -5.0601    -1.7629    -0.5535 C.2     
  10 C10           -6.2327    -2.3325    -1.3096 C.3     
  11 O11           -5.1567    -1.5359     0.6339 O.2     
  12 C12           -7.2049    -2.9865    -0.3256 C.3     
  13 C13           -8.1386    -1.7877    -2.8305 C.3     
  14 C14           -9.1107    -2.4416    -1.8466 C.3     
  15 C15           -8.3954    -3.5648    -1.0932 C.3     
  16 C16          -10.3012    -3.0199    -2.6142 C.3     
  17 N17           -0.8588     0.6663     3.4207 N.ar    
  18 C18            1.4352     1.1758     3.5944 C.ar    
  19 C19            1.2276     1.7047     4.8566 C.ar    
  20 C20           -0.0604     1.6981     5.3735 C.ar    
  21 C21           -1.0876     1.1633     4.6212 C.ar    
  22 C22           -6.9481    -1.2093    -2.0629 C.3     
  23 C23           -0.7661    -1.6094     0.7082 C.ar    
  24 C24           -3.8242    -1.6646    -2.6511 C.3     
  25 C25           -2.8924    -2.8020    -2.9816 C.2     
  26 C26           -3.3789    -3.9316    -3.4815 C.2     
  27 C27           -2.4648    -5.0438    -3.8010 C.2     
  28 O28           -2.8572    -6.0270    -4.6531 O.3     
  29 C29           -1.2504    -5.0797    -3.2496 C.2     
  30 C30           -3.2943    -0.3729    -3.2770 C.3     
  31 C31           -0.8184    -3.9905    -2.3037 C.3     
  32 C32           -1.4126    -2.6509    -2.7494 C.3     
  33 C33           -1.9180    -7.0717    -4.9150 C.3     
  34 C34            2.8158     1.1600     2.9906 C.3     
  35 F35            3.7238     1.7322     3.8881 F       
  36 F36            3.1931    -0.1605     2.7239 F       
  37 F37            2.8123     1.8937     1.7995 F       
  38 C38           -3.5402     1.2759    -0.7263 C.2     
  39 O39           -4.5775     0.9144    -1.2458 O.2     
  40 O40           -3.2679     2.5904    -0.6088 O.3     
  41 H41           -2.0299    -3.0730    -0.1970 H       
  42 H42           -1.2824     1.7338     0.6825 H       
  43 H43           -5.8786    -3.0789    -2.0207 H       
  44 H44           -6.6952    -3.7867     0.2111 H       
  45 H45           -7.5590    -2.2401     0.3855 H       
  46 H46           -7.7845    -2.5340    -3.5416 H       
  47 H47           -8.6482    -0.9875    -3.3672 H       
  48 H48           -9.4649    -1.6953    -1.1355 H       
  49 H49           -8.0413    -4.3111    -1.8043 H       
  50 H50           -9.0880    -4.0307    -0.3922 H       
  51 H51           -9.9471    -3.7663    -3.3253 H       
  52 H52          -10.9938    -3.4858    -1.9132 H       
  53 H53          -10.8109    -2.2197    -3.1509 H       
  54 H54            2.0493     2.1130     5.4263 H       
  55 H55           -0.2565     2.1028     6.3554 H       
  56 H56           -2.0918     1.1560     5.0187 H       
  57 H57           -7.3022    -0.4630    -1.3518 H       
  58 H58           -6.2555    -0.7434    -2.7639 H       
  59 H59           -0.0614    -2.3404     1.0761 H       
  60 H60           -4.8161    -1.8804    -3.0481 H       
  61 H61           -4.4401    -4.0358    -3.6531 H       
  62 H62           -0.5765    -5.8910    -3.4817 H       
  63 H63           -2.3531    -0.0979    -2.8009 H       
  64 H64           -3.1306    -0.5266    -4.3436 H       
  65 H65           -4.0216     0.4259    -3.1324 H       
  66 H66           -1.1637    -4.2271    -1.2973 H       
  67 H67            0.2694    -3.9207    -2.3047 H       
  68 H68           -0.9260    -2.3276    -3.6697 H       
  69 H69           -1.2461    -1.9048    -1.9724 H       
  70 H70           -1.6660    -7.5759    -3.9821 H       
  71 H71           -2.3564    -7.7889    -5.6088 H       
  72 H72           -1.0151    -6.6469    -5.3538 H       
  73 H73           -3.9279     3.2079    -0.9525 H       
@<TRIPOS>BOND
   1    1   23 ar
   2    1    6 1
   3    1    5 ar
   4    2    3 ar
   5    2   23 ar
   6    2   41 1
   7    3    4 ar
   8    3    8 1
   9    4    5 ar
  10    4   38 1
  11    5   42 1
  12    6    7 1
  13    7   18 ar
  14    7   17 ar
  15    8    9 am
  16    8   24 1
  17    9   11 2
  18    9   10 1
  19   10   12 1
  20   10   22 1
  21   10   43 1
  22   12   15 1
  23   12   44 1
  24   12   45 1
  25   13   14 1
  26   13   22 1
  27   13   46 1
  28   13   47 1
  29   14   15 1
  30   14   16 1
  31   14   48 1
  32   15   49 1
  33   15   50 1
  34   16   51 1
  35   16   52 1
  36   16   53 1
  37   17   21 ar
  38   18   19 ar
  39   18   34 1
  40   19   20 ar
  41   19   54 1
  42   20   21 ar
  43   20   55 1
  44   21   56 1
  45   22   57 1
  46   22   58 1
  47   23   59 1
  48   24   25 1
  49   24   30 1
  50   24   60 1
  51   25   26 2
  52   25   32 1
  53   26   27 1
  54   26   61 1
  55   27   28 1
  56   27   29 2
  57   28   33 1
  58   29   31 1
  59   29   62 1
  60   30   63 1
  61   30   64 1
  62   30   65 1
  63   31   32 1
  64   31   66 1
  65   31   67 1
  66   32   68 1
  67   32   69 1
  68   33   70 1
  69   33   71 1
  70   33   72 1
  71   34   35 1
  72   34   36 1
  73   34   37 1
  74   38   39 2
  75   38   40 1
  76   40   73 1

#	End of record

