#	Name: ASD00111120
#	Creating user name:	WinNT
#	Creation time:	15. 06. 2019 18:31

#	Modifying user name:	WinNT
#	Modification time:	15. 06. 2019 18:31

#	Program:	/corina/corina34_cracker 3.40 0067  02.08.2006

@<TRIPOS>MOLECULE
ASD00111120
  42   44    0    0    0
SMALL
NO_CHARGES


@<TRIPOS>ATOM
   1 N1             0.8073     2.3297    -0.7137 N.am    
   2 C2             0.5916     0.9133    -0.9925 C.3     
   3 C3             0.7821     0.0979     0.2911 C.3     
   4 C4             2.2629    -0.1190     0.5119 C.ar    
   5 C5             3.0689     0.9312     0.8815 C.ar    
   6 C6             2.4822     2.3126     1.0710 C.3     
   7 C7             2.0971     2.8748    -0.3018 C.3     
   8 C8             4.4211     0.7360     1.0844 C.ar    
   9 C9             4.9683    -0.5362     0.9124 C.ar    
  10 C10            4.1454    -1.5981     0.5371 C.ar    
  11 C11            2.7963    -1.3856     0.3383 C.ar    
  12 C12            0.1929     0.8633     1.4776 C.3     
  13 N13            8.5341    -0.5340     1.7932 N.2     
  14 N14            7.2568     0.0386     1.8451 N.pl3   
  15 C15            6.4156    -0.7576     1.1268 C.2     
  16 C16            7.1560    -1.7985     0.6419 C.2     
  17 C17            8.4705    -1.6273     1.0762 C.2     
  18 C18            6.8906     1.2718     2.5462 C.3     
  19 C19           -0.2332     3.1757    -0.8484 C.2     
  20 O20           -1.3166     2.7542    -1.1939 O.2     
  21 C21           -0.0503     4.6453    -0.5696 C.3     
  22 F22           -1.2619     5.3135    -0.7764 F       
  23 F23            0.3587     4.8211     0.7566 F       
  24 F24            0.9221     5.1658    -1.4304 F       
  25 H25           -0.4216     0.7678    -1.3673 H       
  26 H26            1.3067     0.5787    -1.7440 H       
  27 H27            0.2825    -0.8655     0.1899 H       
  28 H28            1.5958     2.2500     1.7023 H       
  29 H29            3.2217     2.9629     1.5383 H       
  30 H30            2.8573     2.5991    -1.0327 H       
  31 H31            2.0294     3.9611    -0.2426 H       
  32 H32            5.0517     1.5635     1.3743 H       
  33 H33            4.5633    -2.5848     0.4023 H       
  34 H34            2.1571    -2.2061     0.0476 H       
  35 H35           -0.8392     0.5504     1.6354 H       
  36 H36            0.7776     0.6519     2.3729 H       
  37 H37            0.2205     1.9330     1.2698 H       
  38 H38            6.7886    -2.6101     0.0313 H       
  39 H39            9.2975    -2.2865     0.8575 H       
  40 H40            6.9158     2.1081     1.8476 H       
  41 H41            5.8860     1.1716     2.9570 H       
  42 H42            7.5977     1.4531     3.3557 H       
@<TRIPOS>BOND
   1    1    2 1
   2    1    7 1
   3    1   19 am
   4    2    3 1
   5    2   25 1
   6    2   26 1
   7    3    4 1
   8    3   12 1
   9    3   27 1
  10    4    5 ar
  11    4   11 ar
  12    5    6 1
  13    5    8 ar
  14    6    7 1
  15    6   28 1
  16    6   29 1
  17    7   30 1
  18    7   31 1
  19    8    9 ar
  20    8   32 1
  21    9   10 ar
  22    9   15 1
  23   10   11 ar
  24   10   33 1
  25   11   34 1
  26   12   35 1
  27   12   36 1
  28   12   37 1
  29   13   14 1
  30   13   17 2
  31   14   15 1
  32   14   18 1
  33   15   16 2
  34   16   17 1
  35   16   38 1
  36   17   39 1
  37   18   40 1
  38   18   41 1
  39   18   42 1
  40   19   20 2
  41   19   21 1
  42   21   22 1
  43   21   23 1
  44   21   24 1

#	End of record

