#	Name: ASD08178134
#	Creating user name:	WinNT
#	Creation time:	15. 06. 2019 21:18

#	Modifying user name:	WinNT
#	Modification time:	15. 06. 2019 21:18

#	Program:	/corina/corina34_cracker 3.40 0067  02.08.2006

@<TRIPOS>MOLECULE
ASD08178134
  62   65    0    0    0
SMALL
NO_CHARGES


@<TRIPOS>ATOM
   1 C1            -0.0184     1.5028     0.0103 C.2     
   2 C2             0.0021    -0.0041     0.0020 C.3     
   3 C3             0.0221    -0.5218     1.4416 C.3     
   4 C4             0.0429    -2.0516     1.4332 C.3     
   5 C5             0.0630    -2.5693     2.8728 C.3     
   6 C6             0.0834    -4.0761     2.8645 C.2     
   7 N7             1.1396    -4.8258     2.8513 N.2     
   8 N8             0.9467    -6.0734     2.8463 N.2     
   9 C9            -0.2824    -6.4936     2.8547 C.2     
  10 S10           -1.3267    -5.1359     2.8788 S.3     
  11 N11           -0.6838    -7.8252     2.8506 N.am    
  12 N12            1.0171     2.2809     0.0046 N.2     
  13 C13            0.2391    -8.8073     2.8374 C.2     
  14 O14            1.4197    -8.5298     2.8290 O.2     
  15 C15           -0.1960   -10.2501     2.8329 C.3     
  16 C16            1.0193   -11.1412     2.8177 C.ar    
  17 C17            1.6484   -11.4724     4.0034 C.ar    
  18 C18            1.5015   -11.6318     1.6190 C.ar    
  19 C19            2.6164   -12.4493     1.6050 C.ar    
  20 C20            3.2490   -12.7755     2.7898 C.ar    
  21 C21            2.7633   -12.2892     3.9895 C.ar    
  22 C22            1.1189   -10.9425     5.3110 C.3     
  23 O23            1.9328   -11.4213     6.3836 O.3     
  24 N24            0.7904     3.5228     0.0134 N.2     
  25 C25           -0.4495     3.9094     0.0274 C.2     
  26 S26           -1.4568     2.5237     0.0218 S.3     
  27 N27           -0.8870     5.2295     0.0390 N.am    
  28 C28            0.0089     6.2364     0.0358 C.2     
  29 O29            1.1967     5.9912     0.0228 O.2     
  30 C30           -0.4651     7.6668     0.0485 C.3     
  31 C31            0.7256     8.5906     0.0419 C.ar    
  32 C32            1.2598     9.0210    -1.1582 C.ar    
  33 C33            1.2799     9.0122     1.2360 C.ar    
  34 C34            2.3721     9.8596     1.2300 C.ar    
  35 C35            2.9101    10.2851     0.0299 C.ar    
  36 C36            2.3520     9.8684    -1.1642 C.ar    
  37 H37           -0.8875    -0.3767    -0.5057 H       
  38 H38            0.8922    -0.3525    -0.5218 H       
  39 H39            0.9118    -0.1491     1.9494 H       
  40 H40           -0.8680    -0.1733     1.9655 H       
  41 H41           -0.8467    -2.4242     0.9255 H       
  42 H42            0.9330    -2.4000     0.9094 H       
  43 H43            0.9526    -2.1967     3.3806 H       
  44 H44           -0.8271    -2.2209     3.3967 H       
  45 H45           -1.6281    -8.0470     2.8573 H       
  46 H46           -0.7854   -10.4546     3.7267 H       
  47 H47           -0.8003   -10.4446     1.9469 H       
  48 H48            1.0072   -11.3769     0.6932 H       
  49 H49            2.9928   -12.8333     0.6684 H       
  50 H50            4.1197   -13.4144     2.7790 H       
  51 H51            3.2576   -12.5442     4.9153 H       
  52 H52            1.1406    -9.8528     5.2969 H       
  53 H53            0.0935   -11.2837     5.4528 H       
  54 H54            1.6497   -11.1189     7.2574 H       
  55 H55           -1.8369     5.4256     0.0495 H       
  56 H56           -1.0758     7.8550    -0.8345 H       
  57 H57           -1.0583     7.8451     0.9454 H       
  58 H58            0.8242     8.6950    -2.0911 H       
  59 H59            0.8596     8.6797     2.1737 H       
  60 H60            2.8047    10.1895     2.1629 H       
  61 H61            3.7632    10.9474     0.0252 H       
  62 H62            2.7723    10.2009    -2.1019 H       
@<TRIPOS>BOND
   1    1    2 1
   2    1   12 2
   3    1   26 1
   4    2    3 1
   5    2   37 1
   6    2   38 1
   7    3    4 1
   8    3   39 1
   9    3   40 1
  10    4    5 1
  11    4   41 1
  12    4   42 1
  13    5    6 1
  14    5   43 1
  15    5   44 1
  16    6    7 2
  17    6   10 1
  18    7    8 1
  19    8    9 2
  20    9   10 1
  21    9   11 1
  22   11   13 am
  23   11   45 1
  24   12   24 1
  25   13   14 2
  26   13   15 1
  27   15   16 1
  28   15   46 1
  29   15   47 1
  30   16   17 ar
  31   16   18 ar
  32   17   22 1
  33   17   21 ar
  34   18   19 ar
  35   18   48 1
  36   19   20 ar
  37   19   49 1
  38   20   21 ar
  39   20   50 1
  40   21   51 1
  41   22   23 1
  42   22   52 1
  43   22   53 1
  44   23   54 1
  45   24   25 2
  46   25   26 1
  47   25   27 1
  48   27   28 am
  49   27   55 1
  50   28   29 2
  51   28   30 1
  52   30   31 1
  53   30   56 1
  54   30   57 1
  55   31   32 ar
  56   31   33 ar
  57   32   36 ar
  58   32   58 1
  59   33   34 ar
  60   33   59 1
  61   34   35 ar
  62   34   60 1
  63   35   36 ar
  64   35   61 1
  65   36   62 1

#	End of record

