#	Name: ASD08710054
#	Creating user name:	WinNT
#	Creation time:	15. 06. 2019 21:19

#	Modifying user name:	WinNT
#	Modification time:	15. 06. 2019 21:19

#	Program:	/corina/corina34_cracker 3.40 0067  02.08.2006

@<TRIPOS>MOLECULE
ASD08710054
  52   54    0    0    0
SMALL
NO_CHARGES


@<TRIPOS>ATOM
   1 C1             3.3741    -0.9515     1.6553 C.ar    
   2 C2             3.3137    -2.2621     1.2205 C.ar    
   3 C3             2.5180    -0.0060     1.1218 C.ar    
   4 C4             1.6017    -0.3714     0.1537 C.ar    
   5 C5             1.5416    -1.6823    -0.2816 C.ar    
   6 C6             2.3972    -2.6276     0.2520 C.ar    
   7 S7             2.3209    -4.2981    -0.3031 S.o2    
   8 O8             3.3486    -4.9971     0.3857 O.2     
   9 O9             0.9524    -4.6768    -0.2491 O.2     
  10 N10            2.7445    -4.3024    -1.9040 N.am    
  11 C11            4.1588    -4.3071    -2.3036 C.3     
  12 C12            1.7128    -4.3078    -2.9507 C.3     
  13 C13            1.9611    -5.5045    -3.8774 C.3     
  14 N14            3.3754    -5.5035    -4.2769 N.am    
  15 C15            4.4019    -5.5037    -3.2316 C.3     
  16 C16            3.7201    -5.5079    -5.5798 C.2     
  17 C17            5.1418    -5.6258    -5.9679 C.ar    
  18 O18            2.8621    -5.4150    -6.4358 O.2     
  19 C19            5.7064    -4.7284    -6.8754 C.ar    
  20 N20            6.9725    -4.8333    -7.2211 N.ar    
  21 C21            7.7527    -5.7781    -6.7314 C.ar    
  22 C22            7.2689    -6.7060    -5.8270 C.ar    
  23 C23            5.9458    -6.6360    -5.4270 C.ar    
  24 C24            2.5835     1.4228     1.5963 C.3     
  25 F25            3.5800     1.5455     2.5705 F       
  26 F26            2.8822     2.2598     0.5158 F       
  27 F27            1.3491     1.7897     2.1430 F       
  28 C28            4.8595    -3.6301    -7.4651 C.3     
  29 C29            1.6377    -6.8035    -3.1365 C.3     
  30 C30            0.5419    -2.0809    -1.3365 C.3     
  31 H31            4.0870    -0.6670     2.4150 H       
  32 H32            3.9827    -3.0006     1.6369 H       
  33 H33            0.9325     0.3670    -0.2625 H       
  34 H34            4.3932    -3.3821    -2.8303 H       
  35 H35            4.7886    -4.3967    -1.4185 H       
  36 H36            0.7277    -4.3979    -2.4929 H       
  37 H37            1.7691    -3.3829    -3.5246 H       
  38 H38            1.3308    -5.4186    -4.7625 H       
  39 H39            5.3880    -5.4129    -3.6872 H       
  40 H40            4.3435    -6.4311    -2.6617 H       
  41 H41            8.7858    -5.8279    -7.0421 H       
  42 H42            7.9179    -7.4746    -5.4339 H       
  43 H43            5.5419    -7.3476    -4.7221 H       
  44 H44            4.8355    -2.7824    -6.7803 H       
  45 H45            5.2847    -3.3154    -8.4181 H       
  46 H46            3.8458    -3.9982    -7.6233 H       
  47 H47            0.5923    -6.7952    -2.8280 H       
  48 H48            1.8149    -7.6522    -3.7970 H       
  49 H49            2.2755    -6.8884    -2.2567 H       
  50 H50            0.9915    -1.9705    -2.3233 H       
  51 H51            0.2486    -3.1197    -1.1850 H       
  52 H52           -0.3374    -1.4408    -1.2641 H       
@<TRIPOS>BOND
   1    1    2 ar
   2    1    3 ar
   3    1   31 1
   4    2    6 ar
   5    2   32 1
   6    3    4 ar
   7    3   24 1
   8    4    5 ar
   9    4   33 1
  10    5    6 ar
  11    5   30 1
  12    6    7 1
  13    7    8 2
  14    7    9 2
  15    7   10 am
  16   10   11 1
  17   10   12 1
  18   11   15 1
  19   11   34 1
  20   11   35 1
  21   12   13 1
  22   12   36 1
  23   12   37 1
  24   13   14 1
  25   13   29 1
  26   13   38 1
  27   14   15 1
  28   14   16 am
  29   15   39 1
  30   15   40 1
  31   16   17 1
  32   16   18 2
  33   17   19 ar
  34   17   23 ar
  35   19   20 ar
  36   19   28 1
  37   20   21 ar
  38   21   22 ar
  39   21   41 1
  40   22   23 ar
  41   22   42 1
  42   23   43 1
  43   24   25 1
  44   24   26 1
  45   24   27 1
  46   28   44 1
  47   28   45 1
  48   28   46 1
  49   29   47 1
  50   29   48 1
  51   29   49 1
  52   30   50 1
  53   30   51 1
  54   30   52 1

#	End of record

