#	Name: ASD00842078
#	Creating user name:	WinNT
#	Creation time:	15. 06. 2019 18:43

#	Modifying user name:	WinNT
#	Modification time:	15. 06. 2019 18:43

#	Program:	/corina/corina34_cracker 3.40 0067  02.08.2006

@<TRIPOS>MOLECULE
ASD00842078
  81   86    0    0    0
SMALL
NO_CHARGES


@<TRIPOS>ATOM
   1 F1             6.1191    -1.6631    -1.9426 F       
   2 C2             1.0399     1.5645    -0.3466 C.ar    
   3 C3             1.3396     0.2352    -0.6061 C.ar    
   4 C4             1.2586    -0.7034     0.4126 C.ar    
   5 C5             0.8801    -0.3122     1.6820 C.ar    
   6 C6             0.5815     1.0136     1.9380 C.ar    
   7 C7             0.6618     1.9507     0.9249 C.ar    
   8 C8             1.5830    -2.1485     0.1341 C.3     
   9 C9             1.3027    -2.9996     1.3542 C.2     
  10 C10            0.7822    -2.6541    -1.0676 C.3     
  11 C11           -0.6870    -2.4212    -0.8261 C.2     
  12 N12           -1.5961    -2.8804    -1.7088 N.am    
  13 O13           -1.0513    -1.8206     0.1625 O.2     
  14 C14           -3.0249    -2.5686    -1.5521 C.3     
  15 C15           -3.5492    -2.0085    -2.8785 C.3     
  16 N16           -3.2338    -2.9487    -3.9623 N.3     
  17 C17           -1.7824    -3.1017    -4.1294 C.3     
  18 C18           -1.1850    -3.7016    -2.8576 C.3     
  19 C19           -3.8678    -2.5334    -5.2207 C.3     
  20 C20           -3.4179    -3.4627    -6.3514 C.3     
  21 C21           -4.1282    -3.0631    -7.6467 C.3     
  22 N22           -5.5815    -3.1589    -7.4591 N.3     
  23 C23           -6.0433    -2.2406    -6.4104 C.3     
  24 C24           -5.3901    -2.6156    -5.0782 C.3     
  25 H25           -6.0697    -2.9924    -8.3263 H       
  26 O26            0.2277    -3.1517     1.8949 O.2     
  27 N27            2.4684    -3.5554     1.7253 N.am    
  28 C28            3.0656    -2.3222    -0.1031 C.ar    
  29 C29            3.5228    -3.1783     0.8910 C.ar    
  30 C30            3.9274    -1.8151    -1.0493 C.ar    
  31 C31            5.2696    -2.1586    -1.0163 C.ar    
  32 C32            5.7373    -3.0117    -0.0297 C.ar    
  33 C33            4.8729    -3.5202     0.9194 C.ar    
  34 Cl34           7.4183    -3.4433     0.0135 Cl      
  35 C35            2.3747    -6.2118     2.4388 C.ar    
  36 C36            3.4423    -6.9593     1.9780 C.ar    
  37 C37            1.1033    -6.7543     2.4465 C.ar    
  38 C38            0.8995    -8.0443     1.9933 C.ar    
  39 C39            1.9670    -8.7916     1.5321 C.ar    
  40 C40            3.2385    -8.2491     1.5244 C.ar    
  41 H41            1.8078    -9.7994     1.1780 H       
  42 H42            4.4357    -6.5354     1.9720 H       
  43 O43            1.7113    -0.1472    -1.8560 O.3     
  44 C44            2.2100     0.2644    -4.1847 C.3     
  45 C45            1.6643     0.8484    -2.8800 C.3     
  46 S46            2.6356    -4.5702     3.0232 S.o2    
  47 O47            3.9989    -4.4964     3.4172 O.2     
  48 O48            1.5562    -4.2804     3.9008 O.2     
  49 H49            1.1065     2.2977    -1.1368 H       
  50 H50            0.8170    -1.0424     2.4753 H       
  51 H51            0.2850     1.3173     2.9311 H       
  52 H52            0.4280     2.9855     1.1274 H       
  53 H53            1.0929    -2.1166    -1.9634 H       
  54 H54            0.9637    -3.7204    -1.2024 H       
  55 H55           -3.5718    -3.4761    -1.2962 H       
  56 H56           -3.1534    -1.8260    -0.7647 H       
  57 H57           -4.6292    -1.8751    -2.8155 H       
  58 H58           -3.0749    -1.0481    -3.0807 H       
  59 H59           -1.5811    -3.7612    -4.9736 H       
  60 H60           -1.3327    -2.1261    -4.3141 H       
  61 H61           -0.0976    -3.7106    -2.9329 H       
  62 H62           -1.5540    -4.7185    -2.7241 H       
  63 H63           -3.5777    -1.5089    -5.4539 H       
  64 H64           -2.3397    -3.3764    -6.4861 H       
  65 H65           -3.6725    -4.4921    -6.0994 H       
  66 H66           -3.8622    -2.0382    -7.9054 H       
  67 H67           -3.8209    -3.7319    -8.4506 H       
  68 H68           -5.7683    -1.2195    -6.6750 H       
  69 H69           -7.1269    -2.3120    -6.3165 H       
  70 H70           -5.6758    -3.6318    -4.8062 H       
  71 H71           -5.7210    -1.9242    -4.3033 H       
  72 H72            3.5579    -1.1509    -1.8165 H       
  73 H73            5.2443    -4.1847     1.6855 H       
  74 H74            0.2692    -6.1705     2.8068 H       
  75 H75           -0.0937    -8.4684     1.9999 H       
  76 H76            4.0726    -8.8330     1.1644 H       
  77 H77            3.2097    -0.1350    -4.0139 H       
  78 H78            1.5531    -0.5350    -4.5277 H       
  79 H79            2.2559     1.0470    -4.9419 H       
  80 H80            0.6330     1.1685    -3.0285 H       
  81 H81            2.2711     1.7039    -2.5831 H       
@<TRIPOS>BOND
   1    1   31 1
   2    2    3 ar
   3    2    7 ar
   4    2   49 1
   5    3    4 ar
   6    3   43 1
   7    4    5 ar
   8    4    8 1
   9    5    6 ar
  10    5   50 1
  11    6    7 ar
  12    6   51 1
  13    7   52 1
  14    8    9 1
  15    8   10 1
  16    8   28 1
  17    9   26 2
  18    9   27 am
  19   10   11 1
  20   10   53 1
  21   10   54 1
  22   11   12 am
  23   11   13 2
  24   12   14 1
  25   12   18 1
  26   14   15 1
  27   14   55 1
  28   14   56 1
  29   15   16 1
  30   15   57 1
  31   15   58 1
  32   16   17 1
  33   16   19 1
  34   17   18 1
  35   17   59 1
  36   17   60 1
  37   18   61 1
  38   18   62 1
  39   19   20 1
  40   19   24 1
  41   19   63 1
  42   20   21 1
  43   20   64 1
  44   20   65 1
  45   21   22 1
  46   21   66 1
  47   21   67 1
  48   22   23 1
  49   22   25 1
  50   23   24 1
  51   23   68 1
  52   23   69 1
  53   24   70 1
  54   24   71 1
  55   27   46 am
  56   27   29 1
  57   28   29 ar
  58   28   30 ar
  59   29   33 ar
  60   30   31 ar
  61   30   72 1
  62   31   32 ar
  63   32   33 ar
  64   32   34 1
  65   33   73 1
  66   35   36 ar
  67   35   37 ar
  68   35   46 1
  69   36   42 1
  70   36   40 ar
  71   37   38 ar
  72   37   74 1
  73   38   39 ar
  74   38   75 1
  75   39   40 ar
  76   39   41 1
  77   40   76 1
  78   43   45 1
  79   44   45 1
  80   44   77 1
  81   44   78 1
  82   44   79 1
  83   45   80 1
  84   45   81 1
  85   46   47 2
  86   46   48 2

#	End of record

