#	Name: ASD00170513
#	Creating user name:	WinNT
#	Creation time:	15. 06. 2019 18:32

#	Modifying user name:	WinNT
#	Modification time:	15. 06. 2019 18:32

#	Program:	/corina/corina34_cracker 3.40 0067  02.08.2006

@<TRIPOS>MOLECULE
ASD00170513
  55   58    0    0    0
SMALL
NO_CHARGES


@<TRIPOS>ATOM
   1 C1             0.6606     1.3788     0.5636 C.2     
   2 N2             0.5499     0.0399     0.4560 N.am    
   3 C3            -0.7692    -0.6107     0.4530 C.3     
   4 C4            -0.8484    -1.5450    -0.7590 C.3     
   5 N5             0.2975    -2.4641    -0.7404 N.3     
   6 C6             1.5668    -1.7359    -0.8691 C.3     
   7 C7             1.7447    -0.8088     0.3323 C.3     
   8 C8             0.1689    -3.4869    -1.7870 C.3     
   9 C9             1.4611    -4.2538    -1.9012 C.2     
  10 C10            2.3679    -4.0187    -2.8368 C.2     
  11 S11            3.7404    -5.0979    -2.6644 S.3     
  12 C12            3.0610    -5.8691    -1.3047 C.2     
  13 C13            1.8391    -5.3180    -0.9952 C.2     
  14 C14            1.0077    -5.7651     0.1221 C.2     
  15 O15            1.1052    -5.2236     1.2084 O.2     
  16 C16            0.0487    -6.8748    -0.0676 C.ar    
  17 C17           -0.6671    -7.3761     1.0211 C.ar    
  18 C18           -1.5599    -8.4110     0.8381 C.ar    
  19 C19           -1.7471    -8.9530    -0.4228 C.ar    
  20 C20           -1.0398    -8.4597    -1.5067 C.ar    
  21 C21           -0.1485    -7.4213    -1.3371 C.ar    
  22 Cl22          -2.8724   -10.2561    -0.6454 Cl      
  23 N23            3.6569    -6.9002    -0.6073 N.pl3   
  24 C24            2.0222     2.0246     0.5646 C.3     
  25 O25           -0.3357     2.0643     0.6547 O.2     
  26 C26            1.8697     3.5182     0.6955 C.ar    
  27 C27            1.8463     4.1032     1.9478 C.ar    
  28 C28            1.7064     5.4729     2.0684 C.ar    
  29 C29            1.5899     6.2586     0.9356 C.ar    
  30 C30            1.6134     5.6725    -0.3175 C.ar    
  31 C31            1.7590     4.3032    -0.4370 C.ar    
  32 Cl32           1.4137     7.9790     1.0863 Cl      
  33 H33           -0.8949    -1.1878     1.3690 H       
  34 H34           -1.5506     0.1461     0.3835 H       
  35 H35           -1.7748    -2.1178    -0.7168 H       
  36 H36           -0.8265    -0.9549    -1.6752 H       
  37 H37            2.3919    -2.4471    -0.9067 H       
  38 H38            1.5550    -1.1432    -1.7838 H       
  39 H39            2.6259    -0.1843     0.1855 H       
  40 H40            1.8602    -1.4026     1.2390 H       
  41 H41           -0.6385    -4.1720    -1.5283 H       
  42 H42           -0.0537    -3.0061    -2.7395 H       
  43 H43            2.2749    -3.2641    -3.6037 H       
  44 H44           -0.5217    -6.9546     2.0047 H       
  45 H45           -2.1140    -8.7999     1.6796 H       
  46 H46           -1.1899    -8.8863    -2.4875 H       
  47 H47            0.4023    -7.0372    -2.1830 H       
  48 H48            4.4866    -7.2869    -0.9281 H       
  49 H49            3.2461    -7.2382     0.2039 H       
  50 H50            2.6043     1.6439     1.4038 H       
  51 H51            2.5353     1.7922    -0.3686 H       
  52 H52            1.9369     3.4898     2.8320 H       
  53 H53            1.6878     5.9298     3.0468 H       
  54 H54            1.5225     6.2853    -1.2021 H       
  55 H55            1.7774     3.8456    -1.4151 H       
@<TRIPOS>BOND
   1    1    2 am
   2    1   24 1
   3    1   25 2
   4    2    3 1
   5    2    7 1
   6    3    4 1
   7    3   33 1
   8    3   34 1
   9    4    5 1
  10    4   35 1
  11    4   36 1
  12    5    6 1
  13    5    8 1
  14    6    7 1
  15    6   37 1
  16    6   38 1
  17    7   39 1
  18    7   40 1
  19    8    9 1
  20    8   41 1
  21    8   42 1
  22    9   10 2
  23    9   13 1
  24   10   11 1
  25   10   43 1
  26   11   12 1
  27   12   13 2
  28   12   23 1
  29   13   14 1
  30   14   15 2
  31   14   16 1
  32   16   17 ar
  33   16   21 ar
  34   17   18 ar
  35   17   44 1
  36   18   19 ar
  37   18   45 1
  38   19   20 ar
  39   19   22 1
  40   20   21 ar
  41   20   46 1
  42   21   47 1
  43   23   48 1
  44   23   49 1
  45   24   26 1
  46   24   50 1
  47   24   51 1
  48   26   27 ar
  49   26   31 ar
  50   27   28 ar
  51   27   52 1
  52   28   29 ar
  53   28   53 1
  54   29   30 ar
  55   29   32 1
  56   30   31 ar
  57   30   54 1
  58   31   55 1

#	End of record

