#	Name: ASD03091564
#	Creating user name:	WinNT
#	Creation time:	15. 06. 2019 20:30

#	Modifying user name:	WinNT
#	Modification time:	15. 06. 2019 20:30

#	Program:	/corina/corina34_cracker 3.40 0067  02.08.2006

@<TRIPOS>MOLECULE
ASD03091564
  47   49    0    0    0
SMALL
NO_CHARGES


@<TRIPOS>ATOM
   1 C1            -0.0195     1.3496     0.0164 C.2     
   2 C2            -0.0036     0.0113     0.1886 C.2     
   3 N3            -1.1902    -0.5545     0.1446 N.2     
   4 C4            -2.2099     0.2254    -0.0548 C.2     
   5 S5            -1.6948     1.8486    -0.2036 S.3     
   6 N6            -3.5248    -0.1965    -0.1298 N.3     
   7 C7            -3.6218    -1.6527     0.0470 C.3     
   8 C8            -4.3602     0.5048     0.8560 C.3     
   9 C9            -5.8143     0.0525     0.6985 C.3     
  10 O10           -5.8846    -1.3686     0.8424 O.3     
  11 C11           -5.0834    -2.0833    -0.1023 C.3     
  12 C12           -5.2026    -3.5859     0.1598 C.3     
  13 C13           -6.6757     0.7182     1.7736 C.3     
  14 C14            1.1582     2.2393     0.0183 C.ar    
  15 C15            2.2828     1.9472    -0.7651 C.ar    
  16 C16            1.1808     3.4027     0.7990 C.ar    
  17 C17            2.3011     4.2047     0.7700 C.ar    
  18 N18            3.3414     3.8896     0.0207 N.ar    
  19 C19            3.3601     2.8060    -0.7331 C.ar    
  20 C20            2.3390     5.4588     1.6046 C.3     
  21 C21            4.5784     2.5010    -1.5659 C.3     
  22 C22            1.2661    -0.7689     0.4126 C.3     
  23 N23            1.6149    -0.7378     1.8392 N.3     
  24 H24           -3.0161    -2.1523    -0.7090 H       
  25 H25           -3.2622    -1.9236     1.0397 H       
  26 H26           -4.0124     0.2684     1.8616 H       
  27 H27           -4.2934     1.5800     0.6904 H       
  28 H28           -6.1790     0.3369    -0.2886 H       
  29 H29           -5.4268    -1.8611    -1.1127 H       
  30 H30           -6.2440    -3.8912     0.0571 H       
  31 H31           -4.5918    -4.1301    -0.5605 H       
  32 H32           -4.8571    -3.8071     1.1697 H       
  33 H33           -6.6186     1.8013     1.6658 H       
  34 H34           -7.7108     0.3958     1.6610 H       
  35 H35           -6.3112     0.4315     2.7601 H       
  36 H36            2.3050     1.0626    -1.3842 H       
  37 H37            0.3331     3.6671     1.4137 H       
  38 H38            2.7496     5.2287     2.5878 H       
  39 H39            2.9664     6.2030     1.1140 H       
  40 H40            1.3284     5.8520     1.7158 H       
  41 H41            5.2715     1.8914    -0.9862 H       
  42 H42            4.2791     1.9579    -2.4623 H       
  43 H43            5.0659     3.4331    -1.8516 H       
  44 H44            1.1184    -1.8017     0.0971 H       
  45 H45            2.0736    -0.3235    -0.1686 H       
  46 H46            2.4634    -1.2544     2.0154 H       
  47 H47            1.6940     0.2117     2.1715 H       
@<TRIPOS>BOND
   1    1    2 2
   2    1   14 1
   3    1    5 1
   4    2    3 1
   5    2   22 1
   6    3    4 2
   7    4    5 1
   8    4    6 1
   9    6    7 1
  10    6    8 1
  11    7   11 1
  12    7   24 1
  13    7   25 1
  14    8    9 1
  15    8   26 1
  16    8   27 1
  17    9   10 1
  18    9   13 1
  19    9   28 1
  20   10   11 1
  21   11   12 1
  22   11   29 1
  23   12   30 1
  24   12   31 1
  25   12   32 1
  26   13   33 1
  27   13   34 1
  28   13   35 1
  29   14   15 ar
  30   14   16 ar
  31   15   19 ar
  32   15   36 1
  33   16   17 ar
  34   16   37 1
  35   17   18 ar
  36   17   20 1
  37   18   19 ar
  38   19   21 1
  39   20   38 1
  40   20   39 1
  41   20   40 1
  42   21   41 1
  43   21   42 1
  44   21   43 1
  45   22   23 1
  46   22   44 1
  47   22   45 1
  48   23   46 1
  49   23   47 1

#	End of record

