#	Name: ASD02448054
#	Creating user name:	WinNT
#	Creation time:	15. 06. 2019 20:21

#	Modifying user name:	WinNT
#	Modification time:	15. 06. 2019 20:21

#	Program:	/corina/corina34_cracker 3.40 0067  02.08.2006

@<TRIPOS>MOLECULE
ASD02448054
  81   86    0    0    0
SMALL
NO_CHARGES


@<TRIPOS>ATOM
   1 C1            -0.0491    -6.5821     3.1368 C.ar    
   2 C2             0.4376    -5.4509     2.5108 C.ar    
   3 C3             0.3486    -5.3264     1.1302 C.ar    
   4 C4            -0.2292    -6.3393     0.3797 C.ar    
   5 C5            -0.7171    -7.4751     1.0111 C.ar    
   6 C6            -0.6254    -7.5934     2.3924 C.ar    
   7 N7            -1.3002    -8.4974     0.2589 N.am    
   8 C8            -1.4121    -9.9206     0.6040 C.3     
   9 C9            -2.1085   -10.6879    -0.4732 C.2     
  10 N10           -2.4918    -9.9540    -1.5274 N.am    
  11 S11           -2.0355    -8.3803    -1.2340 S.o2    
  12 O12           -2.3105   -11.8815    -0.3995 O.2     
  13 O13           -3.2260    -7.6231    -1.0649 O.2     
  14 O14           -1.0168    -8.0576    -2.1708 O.2     
  15 N15            0.8420    -4.1774     0.4961 N.pl3   
  16 C16            1.7728    -4.1403    -0.5082 C.2     
  17 C17            0.4815    -2.8939     0.7594 C.2     
  18 N18            1.1494    -2.0983    -0.0285 N.2     
  19 C19            1.9551    -2.8315    -0.8232 C.2     
  20 C20            2.8775    -2.3026    -1.8580 C.ar    
  21 C21            2.9665    -0.9273    -2.0796 C.ar    
  22 C22            3.6616    -3.1764    -2.6077 C.ar    
  23 C23            4.5183    -2.6802    -3.5694 C.ar    
  24 C24            4.6004    -1.3152    -3.7904 C.ar    
  25 C25            3.8273    -0.4404    -3.0447 C.ar    
  26 C26           -0.5264    -2.4610     1.7928 C.3     
  27 C27           -1.8703    -2.2751     1.1367 C.ar    
  28 C28           -2.7142    -3.3592     0.9755 C.ar    
  29 C29           -2.2578    -1.0201     0.7031 C.ar    
  30 C30           -3.4877    -0.8441     0.1020 C.ar    
  31 C31           -4.3393    -1.9337    -0.0681 C.ar    
  32 C32           -3.9459    -3.1948     0.3749 C.ar    
  33 C33           -5.6629    -1.7506    -0.7137 C.ar    
  34 C34           -6.5133    -2.8398    -0.8833 C.ar    
  35 C35           -6.0602    -0.4868    -1.1466 C.ar    
  36 C36           -7.2921    -0.3175    -1.7474 C.ar    
  37 C37           -8.1351    -1.3981    -1.9212 C.ar    
  38 C38           -7.7494    -2.6619    -1.4877 C.ar    
  39 F39            2.2125    -0.0742    -1.3524 F       
  40 F40            5.4411    -0.8351    -4.7327 F       
  41 S41           -8.8275    -4.0376    -1.7113 S.3     
  42 C42          -10.2682    -3.2983    -2.5290 C.3     
  43 C43          -11.3145    -4.3820    -2.7967 C.3     
  44 C44          -12.5296    -3.7585    -3.4864 C.3     
  45 C45          -12.0964    -3.1293    -4.8120 C.3     
  46 C46          -13.5760    -4.8421    -3.7540 C.3     
  47 C47          -13.1315    -2.6804    -2.5828 C.3     
  48 H48            0.0251    -6.6782     4.2100 H       
  49 H49            0.8875    -4.6622     3.0955 H       
  50 H50           -0.2998    -6.2444    -0.6938 H       
  51 H51           -1.0047    -8.4768     2.8846 H       
  52 H52           -0.4133   -10.3328     0.7473 H       
  53 H53           -1.9738   -10.0196     1.5329 H       
  54 H54           -2.9535   -10.2799    -2.3158 H       
  55 H55            2.2664    -4.9872    -0.9614 H       
  56 H56            3.5994    -4.2409    -2.4364 H       
  57 H57            5.1263    -3.3577    -4.1507 H       
  58 H58            3.8946     0.6231    -3.2204 H       
  59 H59           -0.6027    -3.2236     2.5677 H       
  60 H60           -0.2070    -1.5195     2.2397 H       
  61 H61           -2.4085    -4.3361     1.3198 H       
  62 H62           -1.5969    -0.1763     0.8355 H       
  63 H63           -3.7896     0.1363    -0.2355 H       
  64 H64           -4.6022    -4.0427     0.2455 H       
  65 H65           -6.2115    -3.8203    -0.5457 H       
  66 H66           -5.4044     0.3606    -1.0119 H       
  67 H67           -7.5977     0.6629    -2.0820 H       
  68 H68           -9.0977    -1.2602    -2.3910 H       
  69 H69          -10.6969    -2.5303    -1.8853 H       
  70 H70           -9.9596    -2.8501    -3.4735 H       
  71 H71          -10.8857    -5.1500    -3.4404 H       
  72 H72          -11.6231    -4.8302    -1.8522 H       
  73 H73          -11.6676    -3.8973    -5.4558 H       
  74 H74          -12.9621    -2.6851    -5.3034 H       
  75 H75          -11.3510    -2.3572    -4.6214 H       
  76 H76          -13.8846    -5.2904    -2.8096 H       
  77 H77          -14.4416    -4.3979    -4.2454 H       
  78 H78          -13.1472    -5.6102    -4.3977 H       
  79 H79          -12.3860    -1.9084    -2.3921 H       
  80 H80          -13.9971    -2.2362    -3.0741 H       
  81 H81          -13.4401    -3.1287    -1.6383 H       
@<TRIPOS>BOND
   1    1    2 ar
   2    1    6 ar
   3    1   48 1
   4    2    3 ar
   5    2   49 1
   6    3    4 ar
   7    3   15 1
   8    4    5 ar
   9    4   50 1
  10    5    6 ar
  11    5    7 1
  12    6   51 1
  13    7    8 1
  14    7   11 am
  15    8    9 1
  16    8   52 1
  17    8   53 1
  18    9   10 am
  19    9   12 2
  20   10   11 am
  21   10   54 1
  22   11   13 2
  23   11   14 2
  24   15   16 1
  25   15   17 1
  26   16   19 2
  27   16   55 1
  28   17   18 2
  29   17   26 1
  30   18   19 1
  31   19   20 1
  32   20   21 ar
  33   20   22 ar
  34   21   39 1
  35   21   25 ar
  36   22   23 ar
  37   22   56 1
  38   23   24 ar
  39   23   57 1
  40   24   25 ar
  41   24   40 1
  42   25   58 1
  43   26   27 1
  44   26   59 1
  45   26   60 1
  46   27   28 ar
  47   27   29 ar
  48   28   32 ar
  49   28   61 1
  50   29   30 ar
  51   29   62 1
  52   30   31 ar
  53   30   63 1
  54   31   32 ar
  55   31   33 1
  56   32   64 1
  57   33   34 ar
  58   33   35 ar
  59   34   38 ar
  60   34   65 1
  61   35   36 ar
  62   35   66 1
  63   36   37 ar
  64   36   67 1
  65   37   38 ar
  66   37   68 1
  67   38   41 1
  68   41   42 1
  69   42   43 1
  70   42   69 1
  71   42   70 1
  72   43   44 1
  73   43   71 1
  74   43   72 1
  75   44   45 1
  76   44   46 1
  77   44   47 1
  78   45   73 1
  79   45   74 1
  80   45   75 1
  81   46   76 1
  82   46   77 1
  83   46   78 1
  84   47   79 1
  85   47   80 1
  86   47   81 1

#	End of record

