#	Name: ASD01120086
#	Creating user name:	WinNT
#	Creation time:	15. 06. 2019 18:58

#	Modifying user name:	WinNT
#	Modification time:	15. 06. 2019 18:58

#	Program:	/corina/corina34_cracker 3.40 0067  02.08.2006

@<TRIPOS>MOLECULE
ASD01120086
  52   55    0    0    0
SMALL
NO_CHARGES


@<TRIPOS>ATOM
   1 C1            -0.0903     1.3500     0.6471 C.ar    
   2 C2            -0.0522    -0.0391     0.4628 C.ar    
   3 C3            -1.1845    -0.7312     0.0941 C.ar    
   4 C4            -2.3852    -0.0371    -0.0981 C.ar    
   5 C5            -2.4161     1.3670     0.0900 C.ar    
   6 C6            -1.2524     2.0460     0.4703 C.ar    
   7 N7            -3.5160    -0.6644    -0.4580 N.ar    
   8 C8            -4.6260     0.0128    -0.6311 C.ar    
   9 N9            -4.7023     1.3239    -0.4669 N.ar    
  10 C10           -3.6440     2.0409    -0.1121 C.ar    
  11 N11           -3.7382     3.4079     0.0561 N.pl3   
  12 C12           -4.9822     4.0392    -0.0342 C.ar    
  13 C13           -6.1281     3.3761     0.3786 C.ar    
  14 C14           -7.3651     4.0094     0.2872 C.ar    
  15 C15           -7.4445     5.3059    -0.2186 C.ar    
  16 C16           -6.2989     5.9592    -0.6279 C.ar    
  17 C17           -5.0704     5.3340    -0.5323 C.ar    
  18 C18           -8.5950     3.3058     0.7265 C.2     
  19 C19           -9.8211     3.8633     0.6638 C.2     
  20 S20          -10.9810     2.6895     1.2809 S.3     
  21 C21           -9.7194     1.5712     1.5621 C.2     
  22 N22           -8.5862     2.0719     1.2098 N.2     
  23 C23           -9.9075     0.1903     2.1356 C.3     
  24 O24            1.0408     2.0113     1.0112 O.3     
  25 C25            0.9381     3.4262     1.1835 C.3     
  26 O26            1.1143    -0.7099     0.6496 O.3     
  27 C27            1.0890    -2.1242     0.4466 C.3     
  28 C28            2.4831    -2.7009     0.7011 C.3     
  29 O29            2.8287    -2.5224     2.0762 O.3     
  30 C30            4.1193    -3.0294     2.4217 C.3     
  31 H31           -1.1464    -1.8013    -0.0461 H       
  32 H32           -1.2713     3.1161     0.6148 H       
  33 H33           -5.5175    -0.5234    -0.9210 H       
  34 H34           -2.9412     3.9304     0.2368 H       
  35 H35           -6.0615     2.3715     0.7694 H       
  36 H36           -8.4024     5.7995    -0.2906 H       
  37 H37           -6.3628     6.9634    -1.0201 H       
  38 H38           -4.1774     5.8494    -0.8536 H       
  39 H39          -10.0514     4.8537     0.2998 H       
  40 H40          -10.9650     0.0223     2.3391 H       
  41 H41           -9.5528    -0.5516     1.4202 H       
  42 H42           -9.3405     0.1015     3.0623 H       
  43 H43            0.6197     3.8841     0.2469 H       
  44 H44            0.2072     3.6453     1.9619 H       
  45 H45            1.9089     3.8283     1.4730 H       
  46 H46            0.3769    -2.5775     1.1361 H       
  47 H47            0.7888    -2.3387    -0.5790 H       
  48 H48            2.4859    -3.7641     0.4608 H       
  49 H49            3.2099    -2.1847     0.0739 H       
  50 H50            4.1560    -4.0994     2.2171 H       
  51 H51            4.8801    -2.5201     1.8301 H       
  52 H52            4.3063    -2.8555     3.4813 H       
@<TRIPOS>BOND
   1    1    2 ar
   2    1   24 1
   3    1    6 ar
   4    2    3 ar
   5    2   26 1
   6    3    4 ar
   7    3   31 1
   8    4    5 ar
   9    4    7 ar
  10    5    6 ar
  11    5   10 ar
  12    6   32 1
  13    7    8 ar
  14    8    9 ar
  15    8   33 1
  16    9   10 ar
  17   10   11 1
  18   11   12 1
  19   11   34 1
  20   12   13 ar
  21   12   17 ar
  22   13   14 ar
  23   13   35 1
  24   14   15 ar
  25   14   18 1
  26   15   16 ar
  27   15   36 1
  28   16   17 ar
  29   16   37 1
  30   17   38 1
  31   18   19 2
  32   18   22 1
  33   19   20 1
  34   19   39 1
  35   20   21 1
  36   21   22 2
  37   21   23 1
  38   23   40 1
  39   23   41 1
  40   23   42 1
  41   24   25 1
  42   25   43 1
  43   25   44 1
  44   25   45 1
  45   26   27 1
  46   27   28 1
  47   27   46 1
  48   27   47 1
  49   28   29 1
  50   28   48 1
  51   28   49 1
  52   29   30 1
  53   30   50 1
  54   30   51 1
  55   30   52 1

#	End of record

