#	Name: ASD03241004
#	Creating user name:	WinNT
#	Creation time:	15. 06. 2019 20:35

#	Modifying user name:	WinNT
#	Modification time:	15. 06. 2019 20:35

#	Program:	/corina/corina34_cracker 3.40 0067  02.08.2006

@<TRIPOS>MOLECULE
ASD03241004
  59   65    0    0    0
SMALL
NO_CHARGES


@<TRIPOS>ATOM
   1 C1            -0.0188     1.5336     0.0105 C.3     
   2 C2             0.0021    -0.0041     0.0020 C.3     
   3 C3             1.3815     0.0967    -0.6702 C.3     
   4 C4             1.5179     1.4762    -0.0045 C.3     
   5 O5            -0.5818     2.1049    -1.1721 O.3     
   6 C6            -0.5973     2.1316     1.2944 C.3     
   7 C7             2.3746    -0.9181    -0.1653 C.ar    
   8 C8             3.3681    -1.3872    -1.0062 C.ar    
   9 C9             4.2801    -2.3166    -0.5500 C.ar    
  10 C10            4.1992    -2.7830     0.7624 C.ar    
  11 C11            3.1953    -2.3058     1.6055 C.ar    
  12 C12            2.2925    -1.3725     1.1389 C.ar    
  13 N13            6.9673    -6.5944    -0.0368 N.pl3   
  14 C14            7.8687    -7.5268     0.4002 C.2     
  15 N15            8.3267    -7.5378     1.6646 N.2     
  16 C16            7.9376    -6.6581     2.5511 C.2     
  17 C17            6.9755    -5.6308     2.1574 C.ar    
  18 C18            6.5218    -4.6640     3.0603 C.ar    
  19 C19            5.6036    -3.7221     2.6006 C.ar    
  20 C20            5.1743    -3.7807     1.2581 C.ar    
  21 N21            5.6277    -4.7125     0.4336 N.ar    
  22 C22            6.4987    -5.6246     0.8290 C.ar    
  23 C23            8.1454    -8.3531    -0.6808 C.2     
  24 C24            7.3987    -7.9001    -1.7611 C.2     
  25 N25            6.6940    -6.8603    -1.3840 N.2     
  26 C26            5.0871    -2.6764     3.5066 C.2     
  27 C27            4.5760    -2.8937     4.7356 C.2     
  28 C28            4.1566    -1.7566     5.3946 C.2     
  29 C29            4.3202    -0.6167     4.7169 C.2     
  30 S30            5.0501    -0.9538     3.1529 S.3     
  31 C31            7.3953    -8.5076    -3.1402 C.3     
  32 C32            8.4885    -8.0594    -4.1123 C.3     
  33 C33            8.5396    -9.4589    -3.4960 C.3     
  34 N34            1.3186     0.1546    -2.1367 N.3     
  35 H35            0.0329    -0.4458     0.9980 H       
  36 H36           -0.7629    -0.4476    -0.6353 H       
  37 H37            1.9766     2.2276    -0.6471 H       
  38 H38            1.9632     1.4391     0.9897 H       
  39 H39           -0.5977     3.0718    -1.1727 H       
  40 H40            0.0010     1.8098     2.1469 H       
  41 H41           -0.5800     3.2195     1.2285 H       
  42 H42           -1.6249     1.7917     1.4227 H       
  43 H43            3.4297    -1.0254    -2.0219 H       
  44 H44            5.0548    -2.6826    -1.2076 H       
  45 H45            3.1275    -2.6630     2.6224 H       
  46 H46            1.5176    -0.9990     1.7919 H       
  47 H47            8.3216    -6.6908     3.5599 H       
  48 H48            6.8717    -4.6484     4.0820 H       
  49 H49            8.8202    -9.1963    -0.6816 H       
  50 H50            4.5006    -3.8799     5.1694 H       
  51 H51            3.7274    -1.7857     6.3852 H       
  52 H52            4.0489     0.3646     5.0773 H       
  53 H53            6.4114    -8.7260    -3.5553 H       
  54 H54            8.2239    -7.9833    -5.1669 H       
  55 H55            9.2102    -7.3252    -3.7543 H       
  56 H56            9.2949    -9.6453    -2.7325 H       
  57 H57            8.3086   -10.3034    -4.1452 H       
  58 H58            2.2430     0.2199    -2.5360 H       
  59 H59            0.8193    -0.6393    -2.5089 H       
@<TRIPOS>BOND
   1    1    2 1
   2    1    4 1
   3    1    5 1
   4    1    6 1
   5    2    3 1
   6    2   35 1
   7    2   36 1
   8    3    4 1
   9    3    7 1
  10    3   34 1
  11    4   37 1
  12    4   38 1
  13    5   39 1
  14    6   40 1
  15    6   41 1
  16    6   42 1
  17    7    8 ar
  18    7   12 ar
  19    8    9 ar
  20    8   43 1
  21    9   10 ar
  22    9   44 1
  23   10   11 ar
  24   10   20 1
  25   11   12 ar
  26   11   45 1
  27   12   46 1
  28   13   14 1
  29   13   22 1
  30   13   25 1
  31   14   15 1
  32   14   23 2
  33   15   16 2
  34   16   17 1
  35   16   47 1
  36   17   18 ar
  37   17   22 ar
  38   18   19 ar
  39   18   48 1
  40   19   20 ar
  41   19   26 1
  42   20   21 ar
  43   21   22 ar
  44   23   24 1
  45   23   49 1
  46   24   25 2
  47   24   31 1
  48   26   27 2
  49   26   30 1
  50   27   28 1
  51   27   50 1
  52   28   29 2
  53   28   51 1
  54   29   30 1
  55   29   52 1
  56   31   32 1
  57   31   33 1
  58   31   53 1
  59   32   33 1
  60   32   54 1
  61   32   55 1
  62   33   56 1
  63   33   57 1
  64   34   58 1
  65   34   59 1

#	End of record

