#	Name: ASD01880248
#	Creating user name:	WinNT
#	Creation time:	15. 06. 2019 19:40

#	Modifying user name:	WinNT
#	Modification time:	15. 06. 2019 19:40

#	Program:	/corina/corina34_cracker 3.40 0067  02.08.2006

@<TRIPOS>MOLECULE
ASD01880248
  48   50    0    0    0
SMALL
NO_CHARGES


@<TRIPOS>ATOM
   1 C1             0.6123     0.7757     0.7238 C.3     
   2 C2             0.4237    -0.6930     0.4436 C.ar    
   3 C3             0.3716    -1.5934     1.4922 C.ar    
   4 C4             0.1985    -2.9395     1.2414 C.ar    
   5 C5             0.0761    -3.3908    -0.0712 C.ar    
   6 C6             0.1293    -2.4794    -1.1237 C.ar    
   7 C7             0.2975    -1.1349    -0.8611 C.ar    
   8 N8             2.0433     1.0892     0.7432 N.am    
   9 C9             2.8447     1.5007    -0.4196 C.3     
  10 C10            4.2584     1.6984     0.1606 C.3     
  11 O11            4.1070     1.3809     1.5745 O.3     
  12 C12            2.8342     1.0535     1.8243 C.2     
  13 C13            4.7136     3.1482    -0.0178 C.3     
  14 O14            2.4337     0.7441     2.9290 O.2     
  15 C15           -0.1097    -4.8370    -0.3471 C.ar    
  16 C16           -1.2101    -5.2728    -1.0827 C.ar    
  17 C17           -1.3780    -6.6189    -1.3363 C.ar    
  18 C18           -0.4563    -7.5350    -0.8618 C.ar    
  19 C19            0.6374    -7.1080    -0.1309 C.ar    
  20 C20            0.8185    -5.7634     0.1234 C.ar    
  21 N21           -3.0432    -3.7932    -0.4865 N.3     
  22 C22           -3.7735    -2.5755    -0.8632 C.3     
  23 C23           -3.9659    -4.8388    -0.0245 C.3     
  24 C24           -2.2153    -4.2761    -1.5997 C.3     
  25 H25            0.1229     1.3601    -0.0554 H       
  26 H26            0.1736     1.0203     1.6911 H       
  27 H27            0.4669    -1.2425     2.5092 H       
  28 H28            0.1583    -3.6418     2.0609 H       
  29 H29            0.0354    -2.8239    -2.1430 H       
  30 H30            0.3389    -0.4275    -1.6761 H       
  31 H31            2.8482     0.7183    -1.1784 H       
  32 H32            2.4666     2.4354    -0.8337 H       
  33 H33            4.9641     1.0145    -0.3111 H       
  34 H34            4.0222     3.8124     0.5007 H       
  35 H35            5.7140     3.2687     0.3978 H       
  36 H36            4.7287     3.3962    -1.0791 H       
  37 H37           -2.2307    -6.9578    -1.9059 H       
  38 H38           -0.5916    -8.5875    -1.0626 H       
  39 H39            1.3535    -7.8275     0.2377 H       
  40 H40            1.6731    -5.4310     0.6939 H       
  41 H41           -4.3785    -2.2395    -0.0211 H       
  42 H42           -3.0628    -1.7949    -1.1345 H       
  43 H43           -4.4212    -2.7887    -1.7136 H       
  44 H44           -4.6010    -5.1545    -0.8522 H       
  45 H45           -3.3945    -5.6920     0.3410 H       
  46 H46           -4.5868    -4.4456     0.7805 H       
  47 H47           -1.6920    -3.4352    -2.0548 H       
  48 H48           -2.8512    -4.7545    -2.3446 H       
@<TRIPOS>BOND
   1    1    2 1
   2    1    8 1
   3    1   25 1
   4    1   26 1
   5    2    3 ar
   6    2    7 ar
   7    3    4 ar
   8    3   27 1
   9    4    5 ar
  10    4   28 1
  11    5    6 ar
  12    5   15 1
  13    6    7 ar
  14    6   29 1
  15    7   30 1
  16    8    9 1
  17    8   12 am
  18    9   10 1
  19    9   31 1
  20    9   32 1
  21   10   11 1
  22   10   13 1
  23   10   33 1
  24   11   12 1
  25   12   14 2
  26   13   34 1
  27   13   35 1
  28   13   36 1
  29   15   16 ar
  30   15   20 ar
  31   16   17 ar
  32   16   24 1
  33   17   18 ar
  34   17   37 1
  35   18   19 ar
  36   18   38 1
  37   19   20 ar
  38   19   39 1
  39   20   40 1
  40   21   22 1
  41   21   23 1
  42   21   24 1
  43   22   41 1
  44   22   42 1
  45   22   43 1
  46   23   44 1
  47   23   45 1
  48   23   46 1
  49   24   47 1
  50   24   48 1

#	End of record

