#	Name: ASD02508414
#	Creating user name:	WinNT
#	Creation time:	15. 06. 2019 20:24

#	Modifying user name:	WinNT
#	Modification time:	15. 06. 2019 20:24

#	Program:	/corina/corina34_cracker 3.40 0067  02.08.2006

@<TRIPOS>MOLECULE
ASD02508414
  36   38    0    0    0
SMALL
NO_CHARGES


@<TRIPOS>ATOM
   1 N1            -0.2075     1.6927     0.3015 N.2     
   2 C2            -0.1696     0.3589     0.4401 C.2     
   3 C3             1.1188    -0.0306     0.4124 C.2     
   4 N4             1.8732     1.1037     0.2525 N.pl3   
   5 C5             1.0090     2.1508     0.1883 C.2     
   6 C6             3.2679     1.1704     0.1714 C.ar    
   7 C7             3.9621     2.0722     0.9704 C.ar    
   8 N8             3.9148     0.3711    -0.6606 N.ar    
   9 C9             5.2293     0.4008    -0.7680 C.ar    
  10 C10            5.9826     1.2749    -0.0092 C.ar    
  11 C11            5.3431     2.1272     0.8802 C.ar    
  12 S12            1.7203    -1.6806     0.5542 S.o2    
  13 O13            1.6681    -2.2403    -0.7509 O.2     
  14 O14            2.9142    -1.6079     1.3214 O.2     
  15 N15            0.6273    -2.5240     1.4688 N.am    
  16 C16            0.3794    -2.1420     2.7891 C.ar    
  17 C17           -0.9252    -2.0776     3.2615 C.ar    
  18 C18           -1.1677    -1.6997     4.5688 C.ar    
  19 C19           -0.1122    -1.3853     5.4066 C.ar    
  20 C20            1.1886    -1.4486     4.9387 C.ar    
  21 C21            1.4372    -1.8314     3.6339 C.ar    
  22 Cl22           3.1095     3.1151     2.0655 Cl      
  23 Cl23           2.5098    -1.0527     5.9930 Cl      
  24 Cl24          -2.7979    -1.6189     5.1600 Cl      
  25 C25            7.4836     1.2987    -0.1409 C.3     
  26 F26            7.8836     0.3509    -1.0891 F       
  27 F27            7.8956     2.5712    -0.5510 F       
  28 F28            8.0651     0.9960     1.0950 F       
  29 H29           -1.0250    -0.2904     0.5545 H       
  30 H30            1.2832     3.1879     0.0637 H       
  31 H31            5.7228    -0.2673    -1.4582 H       
  32 H32            5.9091     2.8201     1.4852 H       
  33 H33            0.1593    -3.2832     1.0875 H       
  34 H34           -1.7494    -2.3222     2.6078 H       
  35 H35           -0.3039    -1.0896     6.4275 H       
  36 H36            2.4526    -1.8806     3.2692 H       
@<TRIPOS>BOND
   1    1    2 1
   2    1    5 2
   3    2    3 2
   4    2   29 1
   5    3    4 1
   6    3   12 1
   7    4    5 1
   8    4    6 1
   9    5   30 1
  10    6    7 ar
  11    6    8 ar
  12    7   22 1
  13    7   11 ar
  14    8    9 ar
  15    9   10 ar
  16    9   31 1
  17   10   11 ar
  18   10   25 1
  19   11   32 1
  20   12   13 2
  21   12   14 2
  22   12   15 am
  23   15   16 1
  24   15   33 1
  25   16   17 ar
  26   16   21 ar
  27   17   18 ar
  28   17   34 1
  29   18   19 ar
  30   18   24 1
  31   19   20 ar
  32   19   35 1
  33   20   21 ar
  34   20   23 1
  35   21   36 1
  36   25   26 1
  37   25   27 1
  38   25   28 1

#	End of record

