#	Name: ASD02038196
#	Creating user name:	WinNT
#	Creation time:	15. 06. 2019 20:16

#	Modifying user name:	WinNT
#	Modification time:	15. 06. 2019 20:16

#	Program:	/corina/corina34_cracker 3.40 0067  02.08.2006

@<TRIPOS>MOLECULE
ASD02038196
  43   44    0    0    0
SMALL
NO_CHARGES


@<TRIPOS>ATOM
   1 C1             1.1931     1.3697    -0.6410 C.ar    
   2 C2             1.0044     0.0044    -0.5298 C.ar    
   3 C3             2.4708     1.8828    -0.7865 C.ar    
   4 C4             3.5604     1.0307    -0.8212 C.ar    
   5 C5             3.3754    -0.3337    -0.7103 C.ar    
   6 C6             2.0960    -0.8503    -0.5640 C.ar    
   7 Cl7           -0.1731     2.4402    -0.6054 Cl      
   8 Cl8            2.7060     3.5971    -0.9260 Cl      
   9 O9             1.9128    -2.1927    -0.4544 O.3     
  10 C10            0.5684    -2.6540    -0.3063 C.3     
  11 C11            0.5619    -4.1802    -0.1990 C.3     
  12 N12            1.2485    -4.5863     1.0297 N.am    
  13 C13            1.3656    -5.8937     1.3356 C.2     
  14 O14            0.9025    -6.7339     0.5937 O.2     
  15 C15            2.0719    -6.3114     2.5996 C.3     
  16 O16            2.0658    -7.7369     2.6998 O.3     
  17 C17            2.6672    -8.2816     3.7909 C.ar    
  18 C18            2.6973    -9.6592     3.9506 C.ar    
  19 C19            3.2555    -7.4597     4.7410 C.ar    
  20 C20            3.8669    -8.0123     5.8491 C.ar    
  21 C21            3.8923    -9.3908     6.0123 C.ar    
  22 C22            3.3076   -10.2131     5.0586 C.ar    
  23 N23            4.5131    -9.9523     7.1364 N.am    
  24 C24            4.4468    -9.3241     8.3270 C.2     
  25 N25            4.9620    -9.9084     9.4268 N.am    
  26 O26            3.9222    -8.2303     8.4088 O.2     
  27 H27            0.0079    -0.3960    -0.4159 H       
  28 H28            4.5562     1.4327    -0.9355 H       
  29 H29            4.2264    -0.9981    -0.7379 H       
  30 H30            0.1342    -2.2244     0.5965 H       
  31 H31           -0.0181    -2.3481    -1.1726 H       
  32 H32           -0.4673    -4.5383    -0.1755 H       
  33 H33            1.0755    -4.6072    -1.0604 H       
  34 H34            1.6188    -3.9143     1.6231 H       
  35 H35            3.1011    -5.9533     2.5761 H       
  36 H36            1.5583    -5.8844     3.4610 H       
  37 H37            2.2430   -10.2988     3.2083 H       
  38 H38            3.2356    -6.3874     4.6139 H       
  39 H39            4.3254    -7.3723     6.5884 H       
  40 H40            3.3271   -11.2855     5.1850 H       
  41 H41            4.9905   -10.7930     7.0575 H       
  42 H42            5.3805   -10.7810     9.3615 H       
  43 H43            4.9143    -9.4563    10.2837 H       
@<TRIPOS>BOND
   1    1    2 ar
   2    1    3 ar
   3    1    7 1
   4    2    6 ar
   5    2   27 1
   6    3    4 ar
   7    3    8 1
   8    4    5 ar
   9    4   28 1
  10    5    6 ar
  11    5   29 1
  12    6    9 1
  13    9   10 1
  14   10   11 1
  15   10   30 1
  16   10   31 1
  17   11   12 1
  18   11   32 1
  19   11   33 1
  20   12   13 am
  21   12   34 1
  22   13   14 2
  23   13   15 1
  24   15   16 1
  25   15   35 1
  26   15   36 1
  27   16   17 1
  28   17   18 ar
  29   17   19 ar
  30   18   22 ar
  31   18   37 1
  32   19   20 ar
  33   19   38 1
  34   20   21 ar
  35   20   39 1
  36   21   22 ar
  37   21   23 1
  38   22   40 1
  39   23   24 am
  40   23   41 1
  41   24   25 am
  42   24   26 2
  43   25   42 1
  44   25   43 1

#	End of record

