#	Name: ASD01882993
#	Creating user name:	WinNT
#	Creation time:	15. 06. 2019 19:45

#	Modifying user name:	WinNT
#	Modification time:	15. 06. 2019 19:45

#	Program:	/corina/corina34_cracker 3.40 0067  02.08.2006

@<TRIPOS>MOLECULE
ASD01882993
  48   51    0    0    0
SMALL
NO_CHARGES


@<TRIPOS>ATOM
   1 C1            -0.1965     1.1259     0.0643 C.2     
   2 C2             0.1017    -0.3160    -0.0177 C.ar    
   3 C3             1.4451    -0.7238    -0.0804 C.ar    
   4 N4             2.4577     0.2131    -0.0653 N.pl3   
   5 C5             2.2249     1.5321     0.0084 C.2     
   6 C6             0.9482     2.0503     0.0750 C.2     
   7 C7             3.7838    -0.2314    -0.1293 C.ar    
   8 C8             4.5520     0.0322    -1.2559 C.ar    
   9 C9             5.8599    -0.4067    -1.3168 C.ar    
  10 C10            6.4055    -1.1097    -0.2556 C.ar    
  11 C11            5.6412    -1.3736     0.8688 C.ar    
  12 C12            4.3347    -0.9315     0.9361 C.ar    
  13 C13           -0.9208    -1.2643    -0.0329 C.ar    
  14 C14           -0.6061    -2.6033    -0.1098 C.ar    
  15 C15            0.7195    -3.0082    -0.1714 C.ar    
  16 C16            1.7397    -2.0822    -0.1581 C.ar    
  17 O17           -1.3433     1.5350     0.1159 O.2     
  18 C18            0.7345     3.5039     0.1545 C.2     
  19 O19            1.6851     4.2524     0.2804 O.2     
  20 N20           -0.5144     4.0061     0.0878 N.am    
  21 F21            7.6850    -1.5390    -0.3175 F       
  22 C22           -1.7065    -3.6328    -0.1267 C.3     
  23 C23           -2.1242    -3.9091    -1.5724 C.3     
  24 C24           -3.2246    -4.9386    -1.5892 C.ar    
  25 C25           -5.5558    -5.4829    -1.5431 C.ar    
  26 C26           -5.2434    -6.8273    -1.6207 C.ar    
  27 C27           -3.9215    -7.2276    -1.6761 C.ar    
  28 C28           -2.9121    -6.2833    -1.6606 C.ar    
  29 C29           -4.5464    -4.5386    -1.5276 C.ar    
  30 H30            3.0649     2.2108     0.0167 H       
  31 H31            4.1267     0.5798    -2.0840 H       
  32 H32            6.4576    -0.2019    -2.1927 H       
  33 H33            6.0685    -1.9223     1.6951 H       
  34 H34            3.7404    -1.1337     1.8150 H       
  35 H35           -1.9531    -0.9509     0.0156 H       
  36 H36            0.9543    -4.0607    -0.2311 H       
  37 H37            2.7676    -2.4101    -0.2068 H       
  38 H38           -1.2653     3.4173    -0.0864 H       
  39 H39           -0.6624     4.9564     0.2140 H       
  40 H40           -1.3482    -4.5551     0.3306 H       
  41 H41           -2.5630    -3.2582     0.4337 H       
  42 H42           -2.4825    -2.9868    -2.0297 H       
  43 H43           -1.2676    -4.2837    -2.1328 H       
  44 H44           -6.5886    -5.1701    -1.4999 H       
  45 H45           -6.0320    -7.5651    -1.6328 H       
  46 H46           -3.6774    -8.2779    -1.7367 H       
  47 H47           -1.8793    -6.5960    -1.7047 H       
  48 H48           -4.7904    -3.4883    -1.4670 H       
@<TRIPOS>BOND
   1    1    2 1
   2    1    6 1
   3    1   17 2
   4    2    3 ar
   5    2   13 ar
   6    3    4 1
   7    3   16 ar
   8    4    5 1
   9    4    7 1
  10    5    6 2
  11    5   30 1
  12    6   18 1
  13    7    8 ar
  14    7   12 ar
  15    8    9 ar
  16    8   31 1
  17    9   10 ar
  18    9   32 1
  19   10   11 ar
  20   10   21 1
  21   11   12 ar
  22   11   33 1
  23   12   34 1
  24   13   14 ar
  25   13   35 1
  26   14   15 ar
  27   14   22 1
  28   15   16 ar
  29   15   36 1
  30   16   37 1
  31   18   19 2
  32   18   20 am
  33   20   38 1
  34   20   39 1
  35   22   23 1
  36   22   40 1
  37   22   41 1
  38   23   24 1
  39   23   42 1
  40   23   43 1
  41   24   29 ar
  42   24   28 ar
  43   25   26 ar
  44   25   29 ar
  45   25   44 1
  46   26   27 ar
  47   26   45 1
  48   27   28 ar
  49   27   46 1
  50   28   47 1
  51   29   48 1

#	End of record

