#	Name: ASD06560003
#	Creating user name:	WinNT
#	Creation time:	15. 06. 2019 21:06

#	Modifying user name:	WinNT
#	Modification time:	15. 06. 2019 21:06

#	Program:	/corina/corina34_cracker 3.40 0067  02.08.2006

@<TRIPOS>MOLECULE
ASD06560003
  57   61    0    0    0
SMALL
NO_CHARGES


@<TRIPOS>ATOM
   1 C1             0.3022     1.2489     1.5105 C.ar    
   2 C2             0.3250    -0.1387     1.4080 C.ar    
   3 C3             1.4469    -0.7944     0.9952 C.ar    
   4 C4             2.5960    -0.0613     0.6679 C.ar    
   5 C5             2.5702     1.3516     0.7726 C.ar    
   6 C6             1.4033     1.9928     1.1998 C.ar    
   7 N7             3.7237    -0.6577     0.2577 N.ar    
   8 C8             4.7889     0.0613    -0.0426 C.ar    
   9 N9             4.8081     1.3903     0.0416 N.ar    
  10 C10            3.7440     2.0723     0.4369 C.ar    
  11 C11            6.0157    -0.6399    -0.4919 C.ar    
  12 C12            6.0304    -2.0302    -0.5909 C.ar    
  13 C13            7.1750    -2.6774    -1.0101 C.ar    
  14 C14            8.3061    -1.9491    -1.3318 C.ar    
  15 C15            8.2975    -0.5692    -1.2351 C.ar    
  16 C16            7.1569     0.0892    -0.8225 C.ar    
  17 N17            3.7766     3.4481     0.5193 N.pl3   
  18 C18            4.9994     4.1743     0.1674 C.3     
  19 C19            4.7694     5.6765     0.3446 C.3     
  20 C20            6.0464     6.4348    -0.0229 C.3     
  21 C21            6.3381     6.2464    -1.4894 C.ar    
  22 C22            5.8608     7.9018     0.2679 C.ar    
  23 C23            4.7628     8.5729    -0.2368 C.ar    
  24 C24            4.5926     9.9186     0.0300 C.ar    
  25 C25            5.5202    10.5930     0.8018 C.ar    
  26 C26            6.6177     9.9216     1.3072 C.ar    
  27 C27            6.7857     8.5749     1.0441 C.ar    
  28 C28            7.5852     5.8097    -1.8955 C.ar    
  29 C29            7.8528     5.6370    -3.2406 C.ar    
  30 C30            6.8731     5.9004    -4.1796 C.ar    
  31 C31            5.6257     6.3361    -3.7734 C.ar    
  32 C32            5.3567     6.5048    -2.4280 C.ar    
  33 H33           -0.6006     1.7442     1.8361 H       
  34 H34           -0.5596    -0.7050     1.6598 H       
  35 H35            1.4503    -1.8719     0.9211 H       
  36 H36            1.3734     3.0692     1.2825 H       
  37 H37            5.1480    -2.5999    -0.3396 H       
  38 H38            7.1876    -3.7546    -1.0868 H       
  39 H39            9.1996    -2.4598    -1.6594 H       
  40 H40            9.1838    -0.0057    -1.4869 H       
  41 H41            7.1512     1.1665    -0.7477 H       
  42 H42            2.9900     3.9354     0.8104 H       
  43 H43            5.8130     3.8521     0.8173 H       
  44 H44            5.2594     3.9664    -0.8705 H       
  45 H45            3.9557     5.9986    -0.3052 H       
  46 H46            4.5094     5.8843     1.3826 H       
  47 H47            6.8794     6.0503     0.5656 H       
  48 H48            4.0381     8.0461    -0.8398 H       
  49 H49            3.7351    10.4431    -0.3649 H       
  50 H50            5.3876    11.6444     1.0096 H       
  51 H51            7.3426    10.4485     1.9100 H       
  52 H52            7.6431     8.0504     1.4390 H       
  53 H53            8.3506     5.6040    -1.1619 H       
  54 H54            8.8273     5.2965    -3.5580 H       
  55 H55            7.0823     5.7661    -5.2306 H       
  56 H56            4.8603     6.5423    -4.5071 H       
  57 H57            4.3822     6.8452    -2.1107 H       
@<TRIPOS>BOND
   1    1    2 ar
   2    1    6 ar
   3    1   33 1
   4    2    3 ar
   5    2   34 1
   6    3    4 ar
   7    3   35 1
   8    4    5 ar
   9    4    7 ar
  10    5    6 ar
  11    5   10 ar
  12    6   36 1
  13    7    8 ar
  14    8    9 ar
  15    8   11 1
  16    9   10 ar
  17   10   17 1
  18   11   12 ar
  19   11   16 ar
  20   12   13 ar
  21   12   37 1
  22   13   14 ar
  23   13   38 1
  24   14   15 ar
  25   14   39 1
  26   15   16 ar
  27   15   40 1
  28   16   41 1
  29   17   18 1
  30   17   42 1
  31   18   19 1
  32   18   43 1
  33   18   44 1
  34   19   20 1
  35   19   45 1
  36   19   46 1
  37   20   21 1
  38   20   22 1
  39   20   47 1
  40   21   28 ar
  41   21   32 ar
  42   22   23 ar
  43   22   27 ar
  44   23   24 ar
  45   23   48 1
  46   24   25 ar
  47   24   49 1
  48   25   26 ar
  49   25   50 1
  50   26   27 ar
  51   26   51 1
  52   27   52 1
  53   28   29 ar
  54   28   53 1
  55   29   30 ar
  56   29   54 1
  57   30   31 ar
  58   30   55 1
  59   31   32 ar
  60   31   56 1
  61   32   57 1

#	End of record

