#	Name: ASD07301342
#	Creating user name:	WinNT
#	Creation time:	15. 06. 2019 21:11

#	Modifying user name:	WinNT
#	Modification time:	15. 06. 2019 21:11

#	Program:	/corina/corina34_cracker 3.40 0067  02.08.2006

@<TRIPOS>MOLECULE
ASD07301342
  27   27    0    0    0
SMALL
NO_CHARGES


@<TRIPOS>ATOM
   1 C1            -0.1322     1.4996     0.0148 C.3     
   2 C2            -0.1148    -0.0073     0.0091 C.2     
   3 C3             0.0216    -0.7424     1.2675 C.2     
   4 C4             0.0385    -2.2060     1.2619 C.2     
   5 C5            -1.2355    -2.9752     1.4995 C.3     
   6 O6            -0.2138    -0.6113    -1.0388 O.2     
   7 O7             1.0784    -2.8001     1.0660 O.2     
   8 N8             0.1295    -0.0837     2.4104 N.2     
   9 N9             0.1529    -0.7290     3.5271 N.pl3   
  10 C10            0.1591    -0.0322     4.7353 C.ar    
  11 C11            0.1843    -0.7260     5.9396 C.ar    
  12 C12            0.1908    -0.0321     7.1343 C.ar    
  13 C13            0.1723     1.3523     7.1323 C.ar    
  14 C14            0.1467     2.0448     5.9358 C.ar    
  15 C15            0.1459     1.3577     4.7378 C.ar    
  16 Cl16           0.2216    -0.8968     8.6393 Cl      
  17 H17            0.8860     1.8751    -0.0874 H       
  18 H18           -0.7373     1.8592    -0.8174 H       
  19 H19           -0.5578     1.8545     0.9535 H       
  20 H20           -1.7761    -3.0822     0.5591 H       
  21 H21           -0.9956    -3.9622     1.8950 H       
  22 H22           -1.8562    -2.4376     2.2163 H       
  23 H23            0.1662    -1.6989     3.5265 H       
  24 H24            0.1984    -1.8059     5.9413 H       
  25 H25            0.1774     1.8926     8.0674 H       
  26 H26            0.1320     3.1247     5.9380 H       
  27 H27            0.1308     1.8998     3.8038 H       
@<TRIPOS>BOND
   1    1    2 1
   2    1   17 1
   3    1   18 1
   4    1   19 1
   5    2    3 1
   6    2    6 2
   7    3    4 1
   8    3    8 2
   9    4    5 1
  10    4    7 2
  11    5   20 1
  12    5   21 1
  13    5   22 1
  14    8    9 1
  15    9   10 1
  16    9   23 1
  17   10   11 ar
  18   10   15 ar
  19   11   12 ar
  20   11   24 1
  21   12   13 ar
  22   12   16 1
  23   13   14 ar
  24   13   25 1
  25   14   15 ar
  26   14   26 1
  27   15   27 1

#	End of record

