#	Name: ASD01560021
#	Creating user name:	WinNT
#	Creation time:	15. 06. 2019 19:22

#	Modifying user name:	WinNT
#	Modification time:	15. 06. 2019 19:22

#	Program:	/corina/corina34_cracker 3.40 0067  02.08.2006

@<TRIPOS>MOLECULE
ASD01560021
  63   68    0    0    0
SMALL
NO_CHARGES


@<TRIPOS>ATOM
   1 C1             1.4697     5.5524    -1.7080 C.3     
   2 C2             1.7364     5.0330    -3.1418 C.3     
   3 C3             1.7862     3.5008    -2.9852 C.3     
   4 O4             1.6154     3.2082    -1.5882 O.3     
   5 C5             0.8673     4.3028    -1.0167 C.3     
   6 C6             3.1393     2.9725    -3.4658 C.3     
   7 O7             3.1341     1.5440    -3.4264 O.3     
   8 C8             4.3108     0.9433    -3.9711 C.3     
   9 C9             4.3798     1.2247    -5.4500 C.ar    
  10 C10            5.5279     1.5176    -3.2931 C.ar    
  11 C11            4.2654    -0.5459    -3.7447 C.ar    
  12 C12            3.4215    -1.0738    -2.7854 C.ar    
  13 C13            3.3799    -2.4398    -2.5777 C.ar    
  14 C14            4.1819    -3.2780    -3.3295 C.ar    
  15 C15            5.0251    -2.7502    -4.2894 C.ar    
  16 C16            5.0635    -1.3845    -4.5001 C.ar    
  17 C17            3.2272     1.5275    -6.1505 C.ar    
  18 C18            3.2905     1.7855    -7.5071 C.ar    
  19 C19            4.5065     1.7412    -8.1630 C.ar    
  20 C20            5.6593     1.4393    -7.4624 C.ar    
  21 C21            5.5965     1.1855    -6.1049 C.ar    
  22 C22            6.1873     0.7875    -2.3220 C.ar    
  23 C23            7.3038     1.3143    -1.7001 C.ar    
  24 C24            7.7612     2.5711    -2.0496 C.ar    
  25 C25            7.1024     3.3009    -3.0213 C.ar    
  26 C26            5.9884     2.7722    -3.6464 C.ar    
  27 H27            2.3988     5.8544    -1.2246 H       
  28 N28            1.0716     4.3662     0.4326 N.pl3   
  29 C29            0.2264     4.9365     1.3445 C.2     
  30 C30            0.8277     4.7596     2.5944 C.2     
  31 N31            1.9922     4.1008     2.3911 N.2     
  32 C32            2.1357     3.8625     1.1193 C.2     
  33 N33           -0.9523     5.5692     1.2607 N.2     
  34 N34           -1.0243     5.8865     3.5669 N.am    
  35 C35            0.1615     5.2611     3.7404 C.2     
  36 O36            0.6443     5.1316     4.8521 O.2     
  37 O37            2.9859     5.5270    -3.6284 O.3     
  38 C38           -1.5522     6.0249     2.3246 C.2     
  39 H39            0.7540     6.3745    -1.7189 H       
  40 H40            0.9258     5.3241    -3.8099 H       
  41 H41            0.9817     3.0430    -3.5608 H       
  42 H42           -0.1927     4.2075    -1.2521 H       
  43 H43            3.3178     3.3071    -4.4877 H       
  44 H44            3.9286     3.3510    -2.8163 H       
  45 H45            2.7950    -0.4189    -2.1981 H       
  46 H46            2.7211    -2.8521    -1.8278 H       
  47 H47            4.1499    -4.3452    -3.1667 H       
  48 H48            5.6518    -3.4050    -4.8765 H       
  49 H49            5.7222    -0.9722    -5.2500 H       
  50 H50            2.2772     1.5621    -5.6380 H       
  51 H51            2.3899     2.0214    -8.0545 H       
  52 H52            4.5559     1.9421    -9.2230 H       
  53 H53            6.6092     1.4044    -7.9749 H       
  54 H54            6.4971     0.9497    -5.5575 H       
  55 H55            5.8299    -0.1944    -2.0489 H       
  56 H56            7.8185     0.7442    -0.9408 H       
  57 H57            8.6330     2.9830    -1.5632 H       
  58 H58            7.4595     4.2829    -3.2942 H       
  59 H59            5.4737     3.3424    -4.4056 H       
  60 H60            2.9755     3.3494     0.6744 H       
  61 H61           -1.5004     6.2388     4.3350 H       
  62 H62            3.0302     6.4909    -3.6910 H       
  63 H63           -2.5007     6.5293     2.2135 H       
@<TRIPOS>BOND
   1    1   27 1
   2    1    2 1
   3    1    5 1
   4    1   39 1
   5    2   37 1
   6    2    3 1
   7    2   40 1
   8    3    4 1
   9    3    6 1
  10    3   41 1
  11    4    5 1
  12    5   28 1
  13    5   42 1
  14    6    7 1
  15    6   43 1
  16    6   44 1
  17    7    8 1
  18    8    9 1
  19    8   10 1
  20    8   11 1
  21    9   17 ar
  22    9   21 ar
  23   10   22 ar
  24   10   26 ar
  25   11   12 ar
  26   11   16 ar
  27   12   13 ar
  28   12   45 1
  29   13   14 ar
  30   13   46 1
  31   14   15 ar
  32   14   47 1
  33   15   16 ar
  34   15   48 1
  35   16   49 1
  36   17   18 ar
  37   17   50 1
  38   18   19 ar
  39   18   51 1
  40   19   20 ar
  41   19   52 1
  42   20   21 ar
  43   20   53 1
  44   21   54 1
  45   22   23 ar
  46   22   55 1
  47   23   24 ar
  48   23   56 1
  49   24   25 ar
  50   24   57 1
  51   25   26 ar
  52   25   58 1
  53   26   59 1
  54   28   29 1
  55   28   32 1
  56   29   30 2
  57   29   33 1
  58   30   31 1
  59   30   35 1
  60   31   32 2
  61   32   60 1
  62   33   38 2
  63   34   35 am
  64   34   38 1
  65   34   61 1
  66   35   36 2
  67   37   62 1
  68   38   63 1

#	End of record

