#	Name: ASD03730572
#	Creating user name:	WinNT
#	Creation time:	15. 06. 2019 20:44

#	Modifying user name:	WinNT
#	Modification time:	15. 06. 2019 20:44

#	Program:	/corina/corina34_cracker 3.40 0067  02.08.2006

@<TRIPOS>MOLECULE
ASD03730572
  64   69    0    0    0
SMALL
NO_CHARGES


@<TRIPOS>ATOM
   1 O1            -0.4313     1.1674     1.1715 O.3     
   2 C2            -0.3685    -0.2696     1.2372 C.3     
   3 O3             0.7311    -0.6040     0.3701 O.3     
   4 C4             1.5549     0.4851     0.3881 C.ar    
   5 C5             0.8390     1.5744     0.8794 C.ar    
   6 C6             2.8797     0.6371     0.0205 C.ar    
   7 C7             3.5057     1.8746     0.1355 C.ar    
   8 C8             2.7776     2.9579     0.6182 C.ar    
   9 C9             1.4583     2.8079     0.9916 C.ar    
  10 O10            4.7911     2.2309    -0.1491 O.3     
  11 C11            3.7061     4.1425     0.5966 C.3     
  12 C12            4.8685     3.6631    -0.2837 C.3     
  13 N13            3.1359     6.3210     0.9858 N.am    
  14 C14            3.0485     5.3700     0.0344 C.2     
  15 C15            4.1674     4.5326     1.9692 C.ar    
  16 C16            4.8349     3.8609     2.9842 C.ar    
  17 C17            5.1277     4.5212     4.1772 C.ar    
  18 C18            4.7505     5.8395     4.3399 C.ar    
  19 C19            4.0865     6.5067     3.3308 C.ar    
  20 C20            3.7879     5.8601     2.1326 C.ar    
  21 O21            2.5386     5.4833    -1.0602 O.2     
  22 C22            2.6088     7.6795     0.8350 C.3     
  23 C23            1.1614     7.7227     1.3290 C.3     
  24 C24            0.6109     9.1415     1.1716 C.3     
  25 C25           -0.8365     9.1847     1.6656 C.3     
  26 C26           -1.3870    10.6035     1.5081 C.3     
  27 C27            6.1305     2.0895     1.7941 C.ar    
  28 C28            5.2363     2.4445     2.8002 C.ar    
  29 C29            4.7216     1.4471     3.6359 C.ar    
  30 C30            5.1243     0.1427     3.4271 C.ar    
  31 C31            6.0220    -0.1352     2.4003 C.ar    
  32 N32            6.4904     0.8329     1.6269 N.ar    
  33 N33            6.4324    -1.4447     2.1841 N.pl3   
  34 C34            5.8390    -2.5360     2.9607 C.3     
  35 C35            7.4586    -1.7344     1.1794 C.3     
  36 H36           -0.1658    -0.5978     2.2566 H       
  37 H37           -1.2946    -0.7106     0.8687 H       
  38 H38            3.4320    -0.2104    -0.3580 H       
  39 H39            0.9066     3.6549     1.3720 H       
  40 H40            5.8201     4.0366     0.0945 H       
  41 H41            4.7182     3.9633    -1.3207 H       
  42 H42            5.6467     4.0037     4.9705 H       
  43 H43            4.9764     6.3519     5.2634 H       
  44 H44            3.7962     7.5376     3.4703 H       
  45 H45            3.2137     8.3711     1.4215 H       
  46 H46            2.6429     7.9679    -0.2156 H       
  47 H47            0.5565     7.0311     0.7426 H       
  48 H48            1.1273     7.4343     2.3796 H       
  49 H49            1.2158     9.8331     1.7580 H       
  50 H50            0.6450     9.4299     0.1210 H       
  51 H51           -1.4414     8.4931     1.0791 H       
  52 H52           -0.8706     8.8963     2.7162 H       
  53 H53           -0.7821    11.2951     2.0946 H       
  54 H54           -1.3529    10.8919     0.4575 H       
  55 H55           -2.4182    10.6343     1.8601 H       
  56 H56            6.5299     2.8513     1.1410 H       
  57 H57            4.0264     1.6916     4.4254 H       
  58 H58            4.7475    -0.6523     4.0534 H       
  59 H59            4.9613    -2.9177     2.4391 H       
  60 H60            6.5688    -3.3371     3.0781 H       
  61 H61            5.5454    -2.1652     3.9427 H       
  62 H62            7.7782    -0.8049     0.7081 H       
  63 H63            8.3132    -2.2107     1.6599 H       
  64 H64            7.0479    -2.4029     0.4228 H       
@<TRIPOS>BOND
   1    1    2 1
   2    1    5 1
   3    2    3 1
   4    2   36 1
   5    2   37 1
   6    3    4 1
   7    4    5 ar
   8    4    6 ar
   9    5    9 ar
  10    6    7 ar
  11    6   38 1
  12    7    8 ar
  13    7   10 1
  14    8    9 ar
  15    8   11 1
  16    9   39 1
  17   10   12 1
  18   11   12 1
  19   11   14 1
  20   11   15 1
  21   12   40 1
  22   12   41 1
  23   13   14 am
  24   13   20 1
  25   13   22 1
  26   14   21 2
  27   15   16 ar
  28   15   20 ar
  29   16   17 ar
  30   16   28 1
  31   17   18 ar
  32   17   42 1
  33   18   19 ar
  34   18   43 1
  35   19   20 ar
  36   19   44 1
  37   22   23 1
  38   22   45 1
  39   22   46 1
  40   23   24 1
  41   23   47 1
  42   23   48 1
  43   24   25 1
  44   24   49 1
  45   24   50 1
  46   25   26 1
  47   25   51 1
  48   25   52 1
  49   26   53 1
  50   26   54 1
  51   26   55 1
  52   27   28 ar
  53   27   32 ar
  54   27   56 1
  55   28   29 ar
  56   29   30 ar
  57   29   57 1
  58   30   31 ar
  59   30   58 1
  60   31   32 ar
  61   31   33 1
  62   33   34 1
  63   33   35 1
  64   34   59 1
  65   34   60 1
  66   34   61 1
  67   35   62 1
  68   35   63 1
  69   35   64 1

#	End of record

