#	Name: ASD01512007
#	Creating user name:	WinNT
#	Creation time:	15. 06. 2019 19:21

#	Modifying user name:	WinNT
#	Modification time:	15. 06. 2019 19:21

#	Program:	/corina/corina34_cracker 3.40 0067  02.08.2006

@<TRIPOS>MOLECULE
ASD01512007
  74   78    0    0    0
SMALL
NO_CHARGES


@<TRIPOS>ATOM
   1 C1            -0.0496     1.4453    -0.0313 C.ar    
   2 C2             0.0326     0.0654    -0.0253 C.ar    
   3 C3            -1.1165    -0.6986    -0.0042 C.ar    
   4 C4            -2.3663    -0.0776     0.0112 C.ar    
   5 C5            -2.4478     1.3153     0.0051 C.ar    
   6 C6            -1.2885     2.0721    -0.0108 C.ar    
   7 O7            -1.3633     3.4291    -0.0164 O.3     
   8 C8            -2.6703     4.0069    -0.0051 C.3     
   9 C9            -3.5996    -0.8928     0.0333 C.2     
  10 N10           -3.5182    -2.2381     0.0387 N.am    
  11 O11           -4.6870    -0.3498     0.0467 O.2     
  12 S12           -4.8922    -3.1502     0.1891 S.o2    
  13 O13           -4.4875    -4.5074     0.0728 O.2     
  14 O14           -5.5903    -2.6412     1.3173 O.2     
  15 C15           -5.9005    -2.8097    -1.2152 C.ar    
  16 C16           -7.1415    -2.2242    -1.0492 C.ar    
  17 C17           -7.9327    -1.9570    -2.1511 C.ar    
  18 C18           -7.4825    -2.2750    -3.4186 C.ar    
  19 C19           -6.2408    -2.8598    -3.5847 C.ar    
  20 C20           -5.4480    -3.1230    -2.4835 C.ar    
  21 C21           -4.0945    -3.7604    -2.6645 C.3     
  22 C22            1.2099     2.2724    -0.0539 C.3     
  23 C23            1.5824     2.6590     1.3542 C.2     
  24 C24            2.3587     1.8554     2.3019 C.ar    
  25 C25            2.4506     2.6217     3.4779 C.ar    
  26 N26            1.7752     3.8016     3.2473 N.pl3   
  27 C27            1.2706     3.8072     1.9757 C.2     
  28 C28            1.6253     4.8892     4.2173 C.3     
  29 C29            2.9569     0.5955     2.2409 C.ar    
  30 C30            3.6375     0.1092     3.3413 C.ar    
  31 C31            3.7261     0.8711     4.5047 C.ar    
  32 C32            3.1402     2.1151     4.5744 C.ar    
  33 N33            4.2405    -1.1551     3.2868 N.am    
  34 C34            4.7953    -1.5881     2.1373 C.2     
  35 O35            5.4607    -2.7585     2.1099 O.3     
  36 O36            4.6950    -0.9224     1.1257 O.2     
  37 C37            6.0322    -3.1622     0.8377 C.3     
  38 C38            7.2961    -4.0079     1.0722 C.3     
  39 C39            7.0254    -5.3894     0.4413 C.3     
  40 C40            5.9342    -5.1137    -0.6228 C.3     
  41 C41            5.0375    -4.0593     0.0724 C.3     
  42 H42            0.9991    -0.4164    -0.0376 H       
  43 H43           -1.0487    -1.7765     0.0001 H       
  44 H44           -3.4120     1.8015     0.0169 H       
  45 H45           -2.5872     5.0937    -0.0110 H       
  46 H46           -3.2198     3.6796    -0.8877 H       
  47 H47           -3.2008     3.6879     0.8921 H       
  48 H48           -2.6548    -2.6721    -0.0454 H       
  49 H49           -7.4932    -1.9757    -0.0588 H       
  50 H50           -8.9027    -1.5001    -2.0213 H       
  51 H51           -8.1009    -2.0669    -4.2792 H       
  52 H52           -5.8892    -3.1086    -4.5750 H       
  53 H53           -3.3281    -2.9857    -2.6865 H       
  54 H54           -3.8996    -4.4409    -1.8356 H       
  55 H55           -4.0769    -4.3157    -3.6023 H       
  56 H56            2.0185     1.6910    -0.4970 H       
  57 H57            1.0430     3.1724    -0.6457 H       
  58 H58            0.6995     4.6132     1.5391 H       
  59 H59            2.4555     5.5876     4.1112 H       
  60 H60            0.6859     5.4112     4.0356 H       
  61 H61            1.6232     4.4780     5.2267 H       
  62 H62            2.8880     0.0044     1.3398 H       
  63 H63            4.2598     0.4824     5.3594 H       
  64 H64            3.2153     2.6972     5.4809 H       
  65 H65            4.2585    -1.7183     4.0763 H       
  66 H66            6.2768    -2.2824     0.2425 H       
  67 H67            8.1540    -3.5389     0.5902 H       
  68 H68            7.4805    -4.1152     2.1412 H       
  69 H69            7.9285    -5.7771    -0.0300 H       
  70 H70            6.6570    -6.0868     1.1937 H       
  71 H71            6.3757    -4.7061    -1.5322 H       
  72 H72            5.3682    -6.0197    -0.8393 H       
  73 H73            4.3481    -4.5419     0.7651 H       
  74 H74            4.4899    -3.4763    -0.6682 H       
@<TRIPOS>BOND
   1    1    2 ar
   2    1   22 1
   3    1    6 ar
   4    2    3 ar
   5    2   42 1
   6    3    4 ar
   7    3   43 1
   8    4    5 ar
   9    4    9 1
  10    5    6 ar
  11    5   44 1
  12    6    7 1
  13    7    8 1
  14    8   45 1
  15    8   46 1
  16    8   47 1
  17    9   10 am
  18    9   11 2
  19   10   12 am
  20   10   48 1
  21   12   13 2
  22   12   14 2
  23   12   15 1
  24   15   16 ar
  25   15   20 ar
  26   16   17 ar
  27   16   49 1
  28   17   18 ar
  29   17   50 1
  30   18   19 ar
  31   18   51 1
  32   19   20 ar
  33   19   52 1
  34   20   21 1
  35   21   53 1
  36   21   54 1
  37   21   55 1
  38   22   23 1
  39   22   56 1
  40   22   57 1
  41   23   24 1
  42   23   27 2
  43   24   25 ar
  44   24   29 ar
  45   25   26 1
  46   25   32 ar
  47   26   27 1
  48   26   28 1
  49   27   58 1
  50   28   59 1
  51   28   60 1
  52   28   61 1
  53   29   30 ar
  54   29   62 1
  55   30   31 ar
  56   30   33 1
  57   31   32 ar
  58   31   63 1
  59   32   64 1
  60   33   34 am
  61   33   65 1
  62   34   35 1
  63   34   36 2
  64   35   37 1
  65   37   38 1
  66   37   41 1
  67   37   66 1
  68   38   39 1
  69   38   67 1
  70   38   68 1
  71   39   40 1
  72   39   69 1
  73   39   70 1
  74   40   41 1
  75   40   71 1
  76   40   72 1
  77   41   73 1
  78   41   74 1

#	End of record

