#	Name: ASD00310227
#	Creating user name:	WinNT
#	Creation time:	15. 06. 2019 18:34

#	Modifying user name:	WinNT
#	Modification time:	15. 06. 2019 18:34

#	Program:	/corina/corina34_cracker 3.40 0067  02.08.2006

@<TRIPOS>MOLECULE
ASD00310227
  39   41    0    0    0
SMALL
NO_CHARGES


@<TRIPOS>ATOM
   1 N1            -0.0162     1.3431     0.0094 N.pl3   
   2 C2             0.0021    -0.0041     0.0020 C.2     
   3 C3             1.3062    -0.4492    -0.0128 C.2     
   4 C4             2.1537     0.7607    -0.0144 C.ar    
   5 C5             3.5291     0.9745    -0.0264 C.ar    
   6 C6             4.0216     2.2758    -0.0241 C.ar    
   7 C7             3.1347     3.3587    -0.0098 C.ar    
   8 C8             1.7739     3.1471     0.0025 C.ar    
   9 C9             1.2677     1.8492    -0.0001 C.ar    
  10 C10            1.7458    -1.7963    -0.0238 C.2     
  11 O11            0.9346    -2.6995    -0.0210 O.2     
  12 C12            5.4853     2.5154    -0.0363 C.ar    
  13 C13            6.0822     3.1371    -1.1319 C.ar    
  14 C14            7.4435     3.3585    -1.1402 C.ar    
  15 C15            8.2192     2.9625    -0.0593 C.ar    
  16 C16            7.6279     2.3427     1.0330 C.ar    
  17 C17            6.2661     2.1246     1.0503 C.ar    
  18 O18            9.5604     3.1816    -0.0707 O.3     
  19 C19           10.2982     2.7489     1.0741 C.3     
  20 C20           11.7797     3.0780     0.8803 C.3     
  21 C21           12.5696     2.6147     2.1060 C.3     
  22 O22           13.9534     2.9221     1.9250 O.3     
  23 F23            3.6171     4.6206    -0.0076 F       
  24 F24            4.3802    -0.0746    -0.0397 F       
  25 H25           -0.8217     1.8834     0.0163 H       
  26 H26           -0.8720    -0.6384     0.0073 H       
  27 H27            1.0977     3.9891     0.0138 H       
  28 H28            2.8025    -2.0194    -0.0348 H       
  29 H29            5.4793     3.4448    -1.9734 H       
  30 H30            7.9065     3.8401    -1.9888 H       
  31 H31            8.2341     2.0355     1.8724 H       
  32 H32            5.8059     1.6467     1.9025 H       
  33 H33            9.9253     3.2606     1.9613 H       
  34 H34           10.1783     1.6726     1.1981 H       
  35 H35           12.1525     2.5663    -0.0070 H       
  36 H36           11.8996     4.1543     0.7563 H       
  37 H37           12.1968     3.1264     2.9932 H       
  38 H38           12.4497     1.5384     2.2300 H       
  39 H39           14.5156     2.6558     2.6653 H       
@<TRIPOS>BOND
   1    1    2 1
   2    1    9 1
   3    1   25 1
   4    2    3 2
   5    2   26 1
   6    3    4 1
   7    3   10 1
   8    4    5 ar
   9    4    9 ar
  10    5    6 ar
  11    5   24 1
  12    6    7 ar
  13    6   12 1
  14    7    8 ar
  15    7   23 1
  16    8    9 ar
  17    8   27 1
  18   10   11 2
  19   10   28 1
  20   12   13 ar
  21   12   17 ar
  22   13   14 ar
  23   13   29 1
  24   14   15 ar
  25   14   30 1
  26   15   16 ar
  27   15   18 1
  28   16   17 ar
  29   16   31 1
  30   17   32 1
  31   18   19 1
  32   19   20 1
  33   19   33 1
  34   19   34 1
  35   20   21 1
  36   20   35 1
  37   20   36 1
  38   21   22 1
  39   21   37 1
  40   21   38 1
  41   22   39 1

#	End of record

