#	Name: ASD03091928
#	Creating user name:	WinNT
#	Creation time:	15. 06. 2019 20:31

#	Modifying user name:	WinNT
#	Modification time:	15. 06. 2019 20:31

#	Program:	/corina/corina34_cracker 3.40 0067  02.08.2006

@<TRIPOS>MOLECULE
ASD03091928
  54   58    0    0    0
SMALL
NO_CHARGES


@<TRIPOS>ATOM
   1 C1            -0.0150     1.3951     0.0120 C.ar    
   2 C2            -1.2495     2.0686     0.0343 C.ar    
   3 C3            -2.4497     1.3140     0.0356 C.ar    
   4 C4            -2.3931    -0.0936     0.0126 C.ar    
   5 C5            -1.1946    -0.7309    -0.0086 C.ar    
   6 C6             0.0034    -0.0000    -0.0094 C.ar    
   7 O7             1.1602     2.0650     0.0163 O.3     
   8 C8             2.2582     1.4564     0.6964 C.3     
   9 N9             2.4079     0.0581     0.2907 N.am    
  10 C10            1.3159    -0.6756    -0.0259 C.2     
  11 C11           -3.6690    -0.8955     0.0121 C.3     
  12 N12           -4.2246    -0.9307    -1.3473 N.3     
  13 C13           -5.3325    -1.8927    -1.4389 C.3     
  14 O14            1.4125    -1.8531    -0.3143 O.2     
  15 C15            3.7405    -0.5472     0.2270 C.3     
  16 C16            4.5993     0.1760    -0.8309 C.3     
  17 C17            4.4635    -0.3731     1.5741 C.3     
  18 C18            5.7365     0.4499     1.2878 C.3     
  19 C19            5.4075     1.2169    -0.0170 C.3     
  20 O20            4.8163    -1.6504     2.1089 O.3     
  21 C21           -3.6823     1.9866     0.0605 C.ar    
  22 C22           -1.3165     3.4708     0.0558 C.ar    
  23 C23           -2.5300     4.0886     0.0794 C.ar    
  24 C24           -3.7096     3.3479     0.0815 C.ar    
  25 C25           -5.9194    -1.8540    -2.8524 C.3     
  26 O26           -4.8844    -2.1281    -3.8006 O.3     
  27 C27           -3.7897    -1.2099    -3.7396 C.3     
  28 C28           -3.1813    -1.2421    -2.3351 C.3     
  29 H29           -1.1629    -1.8103    -0.0259 H       
  30 H30            3.1731     1.9991     0.4586 H       
  31 H31            2.0840     1.5015     1.7715 H       
  32 H32           -3.4595    -1.9119     0.3454 H       
  33 H33           -4.3891    -0.4329     0.6871 H       
  34 H34           -4.9622    -2.8956    -1.2260 H       
  35 H35           -6.1049    -1.6282    -0.7167 H       
  36 H36            3.6579    -1.6060    -0.0184 H       
  37 H37            5.2705    -0.5276    -1.3234 H       
  38 H38            3.9636     0.6743    -1.5627 H       
  39 H39            3.8229     0.1618     2.2753 H       
  40 H40            5.9306     1.1480     2.1021 H       
  41 H41            6.5913    -0.2095     1.1375 H       
  42 H42            6.3211     1.4938    -0.5431 H       
  43 H43            4.8006     2.0972     0.1950 H       
  44 H44            5.2757    -1.6077     2.9588 H       
  45 H45           -4.6055     1.4261     0.0625 H       
  46 H46           -0.4095     4.0571     0.0539 H       
  47 H47           -2.5783     5.1673     0.0966 H       
  48 H48           -4.6598     3.8609     0.1002 H       
  49 H49           -6.7034    -2.6059    -2.9417 H       
  50 H50           -6.3378    -0.8662    -3.0458 H       
  51 H51           -3.0335    -1.4960    -4.4705 H       
  52 H52           -4.1462    -0.2034    -3.9587 H       
  53 H53           -2.3833    -0.5027    -2.2670 H       
  54 H54           -2.7766    -2.2345    -2.1364 H       
@<TRIPOS>BOND
   1    1    6 ar
   2    1    7 1
   3    1    2 ar
   4    2    3 ar
   5    2   22 ar
   6    3    4 ar
   7    3   21 ar
   8    4    5 ar
   9    4   11 1
  10    5    6 ar
  11    5   29 1
  12    6   10 1
  13    7    8 1
  14    8    9 1
  15    8   30 1
  16    8   31 1
  17    9   10 am
  18    9   15 1
  19   10   14 2
  20   11   12 1
  21   11   32 1
  22   11   33 1
  23   12   13 1
  24   12   28 1
  25   13   25 1
  26   13   34 1
  27   13   35 1
  28   15   17 1
  29   15   16 1
  30   15   36 1
  31   16   19 1
  32   16   37 1
  33   16   38 1
  34   17   18 1
  35   17   20 1
  36   17   39 1
  37   18   19 1
  38   18   40 1
  39   18   41 1
  40   19   42 1
  41   19   43 1
  42   20   44 1
  43   21   24 ar
  44   21   45 1
  45   22   23 ar
  46   22   46 1
  47   23   24 ar
  48   23   47 1
  49   24   48 1
  50   25   26 1
  51   25   49 1
  52   25   50 1
  53   26   27 1
  54   27   28 1
  55   27   51 1
  56   27   52 1
  57   28   53 1
  58   28   54 1

#	End of record

