#	Name: ASD09740243
#	Creating user name:	WinNT
#	Creation time:	15. 06. 2019 21:23

#	Modifying user name:	WinNT
#	Modification time:	15. 06. 2019 21:23

#	Program:	/corina/corina34_cracker 3.40 0067  02.08.2006

@<TRIPOS>MOLECULE
ASD09740243
  47   49    0    0    0
SMALL
NO_CHARGES


@<TRIPOS>ATOM
   1 N1            -0.0144     1.2087     0.0087 N.2     
   2 O2             0.0021    -0.0041     0.0020 O.3     
   3 C3             1.2069     1.6747    -0.0005 C.2     
   4 N4             2.0404     0.6103    -0.0141 N.2     
   5 C5             1.2640    -0.4445    -0.0124 C.2     
   6 C6             1.7097    -1.8841    -0.0239 C.3     
   7 C7             1.6044     3.1054     0.0030 C.ar    
   8 C8             1.1910    -2.5804     1.2078 C.ar    
   9 C9             2.9515     3.4759    -0.0084 C.ar    
  10 C10            3.2773     4.8171    -0.0046 C.ar    
  11 N11            2.3370     5.7421     0.0099 N.ar    
  12 C12            1.0546     5.4348     0.0209 C.ar    
  13 C13            0.6416     4.1174     0.0118 C.ar    
  14 C14            2.0761    -3.1456     2.1067 C.ar    
  15 C15            1.6004    -3.7843     3.2365 C.ar    
  16 C16            0.2395    -3.8575     3.4677 C.ar    
  17 C17           -0.6457    -3.2915     2.5693 C.ar    
  18 C18           -0.1697    -2.6490     1.4417 C.ar    
  19 C19            1.1600    -2.5781    -1.2717 C.3     
  20 C20           -0.2793    -4.5547     4.6989 C.3     
  21 C21           -0.3980    -3.5468     5.8439 C.3     
  22 C22           -1.0407    -4.2248     7.0556 C.3     
  23 C23            0.9947    -3.0390     6.2228 C.3     
  24 C24           -0.8262     3.7762     0.0246 C.3     
  25 H25            2.7988    -1.9272    -0.0342 H       
  26 H26            3.7266     2.7239    -0.0195 H       
  27 H27            4.3158     5.1132    -0.0133 H       
  28 H28            0.3176     6.2242     0.0326 H       
  29 H29            3.1394    -3.0884     1.9261 H       
  30 H30            2.2919    -4.2265     3.9384 H       
  31 H31           -1.7089    -3.3490     2.7497 H       
  32 H32           -0.8612    -2.2068     0.7397 H       
  33 H33            1.5351    -2.0745    -2.1626 H       
  34 H34            1.4823    -3.6194    -1.2801 H       
  35 H35            0.0709    -2.5350    -1.2614 H       
  36 H36           -1.2594    -4.9826     4.4884 H       
  37 H37            0.4103    -5.3492     4.9842 H       
  38 H38           -1.0168    -2.7076     5.5264 H       
  39 H39           -0.4219    -5.0641     7.3730 H       
  40 H40           -1.1253    -3.5068     7.8713 H       
  41 H41           -2.0328    -4.5866     6.7856 H       
  42 H42            0.9101    -2.3210     7.0385 H       
  43 H43            1.6135    -3.8783     6.5402 H       
  44 H44            1.4526    -2.5560     5.3595 H       
  45 H45           -1.1915     3.7045    -0.9999 H       
  46 H46           -0.9730     2.8217     0.5302 H       
  47 H47           -1.3758     4.5554     0.5526 H       
@<TRIPOS>BOND
   1    1    2 1
   2    1    3 2
   3    2    5 1
   4    3    4 1
   5    3    7 1
   6    4    5 2
   7    5    6 1
   8    6    8 1
   9    6   19 1
  10    6   25 1
  11    7    9 ar
  12    7   13 ar
  13    8   14 ar
  14    8   18 ar
  15    9   10 ar
  16    9   26 1
  17   10   11 ar
  18   10   27 1
  19   11   12 ar
  20   12   13 ar
  21   12   28 1
  22   13   24 1
  23   14   15 ar
  24   14   29 1
  25   15   16 ar
  26   15   30 1
  27   16   17 ar
  28   16   20 1
  29   17   18 ar
  30   17   31 1
  31   18   32 1
  32   19   33 1
  33   19   34 1
  34   19   35 1
  35   20   21 1
  36   20   36 1
  37   20   37 1
  38   21   22 1
  39   21   23 1
  40   21   38 1
  41   22   39 1
  42   22   40 1
  43   22   41 1
  44   23   42 1
  45   23   43 1
  46   23   44 1
  47   24   45 1
  48   24   46 1
  49   24   47 1

#	End of record

