#	Name: ASD01912796
#	Creating user name:	WinNT
#	Creation time:	15. 06. 2019 20:00

#	Modifying user name:	WinNT
#	Modification time:	15. 06. 2019 20:00

#	Program:	/corina/corina34_cracker 3.40 0067  02.08.2006

@<TRIPOS>MOLECULE
ASD01912796
  41   44    0    0    0
SMALL
NO_CHARGES


@<TRIPOS>ATOM
   1 C1            -0.0264     1.3421     0.2538 C.2     
   2 N2             0.0030    -0.0019    -0.0158 N.pl3   
   3 C3            -1.1911    -0.6642    -0.2586 C.2     
   4 C4            -2.3524    -0.0228    -0.2346 C.2     
   5 N5            -2.4358     1.3306     0.0320 N.am    
   6 C6            -1.3128     2.0398     0.2837 C.2     
   7 C7             1.2832     1.7375     0.4530 C.2     
   8 C8             2.0430     0.5807     0.2876 C.2     
   9 N9             1.2236    -0.4066     0.0131 N.2     
  10 O10           -1.3692     3.2331     0.5204 O.2     
  11 C11           -3.6834     1.9661     0.0464 C.ar    
  12 C12            3.5423     0.4814     0.4034 C.3     
  13 O13            4.0823     1.7678     0.7126 O.3     
  14 C14            5.4292     1.8530     0.8519 C.ar    
  15 C15            6.0135     3.0766     1.1524 C.ar    
  16 C16            7.3887     3.1501     1.2919 C.ar    
  17 C17            8.1338     1.9912     1.1248 C.ar    
  18 C18            7.4860     0.8087     0.8268 C.ar    
  19 N19            6.1729     0.7690     0.7054 N.ar    
  20 C20           -4.6053     1.6660     1.0411 C.ar    
  21 C21           -3.9986     2.9013    -0.9305 C.ar    
  22 C22           -5.2298     3.5269    -0.9145 C.ar    
  23 C23           -6.1496     3.2221     0.0746 C.ar    
  24 C24           -5.8350     2.2938     1.0533 C.ar    
  25 F25           -7.3532     3.8356     0.0887 F       
  26 C26           -6.8382     1.9637     2.1283 C.3     
  27 H27           -1.1755    -1.7228    -0.4717 H       
  28 H28           -3.2598    -0.5750    -0.4297 H       
  29 H29            1.6408     2.7296     0.6859 H       
  30 H30            3.7998    -0.2209     1.1961 H       
  31 H31            3.9572     0.1308    -0.5416 H       
  32 H32            5.4030     3.9590     1.2754 H       
  33 H33            7.8708     4.0880     1.5250 H       
  34 H34            9.2088     2.0141     1.2265 H       
  35 H35            8.0612    -0.0959     0.6955 H       
  36 H36           -4.3606     0.9420     1.8041 H       
  37 H37           -3.2813     3.1395    -1.7020 H       
  38 H38           -5.4753     4.2546    -1.6739 H       
  39 H39           -7.4637     1.1340     1.7992 H       
  40 H40           -6.3132     1.6831     3.0414 H       
  41 H41           -7.4633     2.8355     2.3220 H       
@<TRIPOS>BOND
   1    1    2 1
   2    1    7 2
   3    1    6 1
   4    2    3 1
   5    2    9 1
   6    3    4 2
   7    3   27 1
   8    4    5 1
   9    4   28 1
  10    5    6 am
  11    5   11 1
  12    6   10 2
  13    7    8 1
  14    7   29 1
  15    8    9 2
  16    8   12 1
  17   11   21 ar
  18   11   20 ar
  19   12   13 1
  20   12   30 1
  21   12   31 1
  22   13   14 1
  23   14   15 ar
  24   14   19 ar
  25   15   16 ar
  26   15   32 1
  27   16   17 ar
  28   16   33 1
  29   17   18 ar
  30   17   34 1
  31   18   19 ar
  32   18   35 1
  33   20   24 ar
  34   20   36 1
  35   21   22 ar
  36   21   37 1
  37   22   23 ar
  38   22   38 1
  39   23   24 ar
  40   23   25 1
  41   24   26 1
  42   26   39 1
  43   26   40 1
  44   26   41 1

#	End of record

