#	Name: ASD01020009
#	Creating user name:	WinNT
#	Creation time:	15. 06. 2019 18:56

#	Modifying user name:	WinNT
#	Modification time:	15. 06. 2019 18:56

#	Program:	/corina/corina34_cracker 3.40 0067  02.08.2006

@<TRIPOS>MOLECULE
ASD01020009
  48   51    0    0    0
SMALL
NO_CHARGES


@<TRIPOS>ATOM
   1 F1            11.2445     3.7307    -4.9784 F       
   2 F2            11.6296     3.3571    -2.7577 F       
   3 F3            12.5623     5.1693    -3.7898 F       
   4 O4            -2.0053     2.9972     0.5411 O.2     
   5 N5            -2.4559     3.6759    -1.5225 N.am    
   6 N6             2.2502     4.5274    -0.8717 N.pl3   
   7 N7             7.0039     4.7745    -1.6547 N.pl3   
   8 N8             3.2361     6.2904    -2.0935 N.ar    
   9 N9             5.5061     6.4088    -2.4671 N.ar    
  10 C10           -3.8215     1.8934    -0.4850 C.3     
  11 C11           -4.0427     1.0361     0.7628 C.3     
  12 C12           -5.0276     2.1554     0.4192 C.3     
  13 C13           -2.6957     2.8945    -0.4508 C.2     
  14 C14           -1.3732     4.5622    -1.5139 C.ar    
  15 C15           -0.1025     4.1033    -1.1976 C.ar    
  16 C16           -1.5685     5.9013    -1.8274 C.ar    
  17 C17            0.9686     4.9855    -1.1902 C.ar    
  18 C18           -0.4998     6.7774    -1.8196 C.ar    
  19 C19            0.7654     6.3252    -1.4993 C.ar    
  20 C20            3.3647     5.1556    -1.4084 C.ar    
  21 C21            8.0621     5.3508    -2.3634 C.ar    
  22 C22            4.6335     4.6094    -1.2384 C.ar    
  23 C23            5.7189     5.2782    -1.7958 C.ar    
  24 C24           10.2235     5.1635    -3.3851 C.ar    
  25 C25            9.1799     4.5912    -2.6850 C.ar    
  26 C26            7.9958     6.6824    -2.7524 C.ar    
  27 C27           10.1568     6.4914    -3.7661 C.ar    
  28 C28            9.0432     7.2486    -3.4525 C.ar    
  29 C29           11.4367     4.3404    -3.7340 C.3     
  30 C30            4.2893     6.8938    -2.6062 C.ar    
  31 H31           -4.0098     1.4303    -1.4536 H       
  32 H32           -4.3765     0.0090     0.6152 H       
  33 H33           -3.3739     1.1962     1.6085 H       
  34 H34           -5.0067     3.0519     1.0389 H       
  35 H35           -6.0094     1.8647     0.0455 H       
  36 H36           -3.0315     3.6209    -2.3013 H       
  37 H37            0.0526     3.0619    -0.9575 H       
  38 H38           -2.5566     6.2581    -2.0780 H       
  39 H39           -0.6543     7.8179    -2.0642 H       
  40 H40            1.5985     7.0125    -1.4933 H       
  41 H41            2.3604     3.7703    -0.2755 H       
  42 H42            4.7720     3.6906    -0.6878 H       
  43 H43            7.1680     4.0226    -1.0644 H       
  44 H44            9.2328     3.5543    -2.3875 H       
  45 H45            7.1261     7.2743    -2.5082 H       
  46 H46           10.9744     6.9366    -4.3135 H       
  47 H47            8.9922     8.2840    -3.7557 H       
  48 H48            4.1508     7.8127    -3.1564 H       
@<TRIPOS>BOND
   1    1   29 1
   2    2   29 1
   3    3   29 1
   4    4   13 2
   5    5   13 am
   6    5   14 1
   7    5   36 1
   8    6   17 1
   9    6   20 1
  10    6   41 1
  11    7   21 1
  12    7   23 1
  13    7   43 1
  14    8   20 ar
  15    8   30 ar
  16    9   23 ar
  17    9   30 ar
  18   10   11 1
  19   10   12 1
  20   10   13 1
  21   10   31 1
  22   11   12 1
  23   11   32 1
  24   11   33 1
  25   12   34 1
  26   12   35 1
  27   14   15 ar
  28   14   16 ar
  29   15   17 ar
  30   15   37 1
  31   16   18 ar
  32   16   38 1
  33   17   19 ar
  34   18   19 ar
  35   18   39 1
  36   19   40 1
  37   20   22 ar
  38   21   25 ar
  39   21   26 ar
  40   22   23 ar
  41   22   42 1
  42   24   25 ar
  43   24   27 ar
  44   24   29 1
  45   25   44 1
  46   26   28 ar
  47   26   45 1
  48   27   28 ar
  49   27   46 1
  50   28   47 1
  51   30   48 1

#	End of record

