#	Name: ASD01150576
#	Creating user name:	WinNT
#	Creation time:	15. 06. 2019 19:04

#	Modifying user name:	WinNT
#	Modification time:	15. 06. 2019 19:04

#	Program:	/corina/corina34_cracker 3.40 0067  02.08.2006

@<TRIPOS>MOLECULE
ASD01150576
  52   55    0    0    0
SMALL
NO_CHARGES


@<TRIPOS>ATOM
   1 C1             0.4933     1.3919    -0.9465 C.ar    
   2 C2             0.4639     0.0109    -0.9224 C.ar    
   3 C3             1.9479     0.0102     0.9677 C.ar    
   4 C4             1.9789     1.3967     0.9445 C.ar    
   5 C5             1.2508     2.0887    -0.0133 C.ar    
   6 N6             1.2801     3.4880    -0.0393 N.am    
   7 C7             0.1264     4.1736    -0.1219 C.2     
   8 N8             0.1176     5.5193    -0.1491 N.am    
   9 C9             1.2789     6.2039    -0.0933 C.2     
  10 C10            2.5443     5.4601    -0.0029 C.2     
  11 N11            2.5098     4.1538     0.0267 N.2     
  12 O12            1.2793     7.4207    -0.1178 O.2     
  13 C13           -1.1539     6.2413    -0.2399 C.3     
  14 O14           -0.9269     3.5677    -0.1732 O.2     
  15 C15           -1.6752     6.5170     1.1469 C.ar    
  16 O16            3.7301     6.1204     0.0549 O.3     
  17 C17            4.9130     5.3233     0.1414 C.3     
  18 C18            1.1883    -0.6824     0.0308 C.ar    
  19 C19           -1.3230     7.6857     1.7968 C.ar    
  20 C20           -1.7996     7.9413     3.0677 C.ar    
  21 C21           -2.6329     7.0235     3.6927 C.ar    
  22 C22           -2.9847     5.8510     3.0377 C.ar    
  23 C23           -2.5093     5.6034     1.7648 C.ar    
  24 N24            2.6816    -0.6914     1.9324 N.am    
  25 C25            2.9446    -0.1216     3.1251 C.2     
  26 C26            3.6402    -0.9140     4.2018 C.3     
  27 O27            2.6215     1.0290     3.3319 O.2     
  28 F28            1.1575    -2.0329     0.0519 F       
  29 N29           -3.1178     7.2800     4.9827 N.pl3   
  30 N30           -2.8447     8.4160     5.7555 N.2     
  31 C31           -3.4739     8.2956     6.8967 C.2     
  32 C32           -4.1675     7.0805     6.8884 C.2     
  33 C33           -3.9368     6.4772     5.6993 C.2     
  34 H34           -0.0696     1.9303    -1.6946 H       
  35 H35           -0.1260    -0.5285    -1.6487 H       
  36 H36            2.5683     1.9368     1.6707 H       
  37 H37           -0.9996     7.1844    -0.7642 H       
  38 H38           -1.8772     5.6359    -0.7863 H       
  39 H39            5.7870     5.9733     0.1807 H       
  40 H40            4.8740     4.7119     1.0429 H       
  41 H41            4.9801     4.6767    -0.7335 H       
  42 H42           -0.6744     8.3991     1.3102 H       
  43 H43           -1.5239     8.8541     3.5749 H       
  44 H44           -3.6326     5.1350     3.5215 H       
  45 H45           -2.7826     4.6915     1.2547 H       
  46 H46            3.0005    -1.5875     1.7421 H       
  47 H47            4.7185    -0.7858     4.1080 H       
  48 H48            3.3159    -0.5600     5.1804 H       
  49 H49            3.3892    -1.9694     4.0957 H       
  50 H50           -3.4598     9.0109     7.7058 H       
  51 H51           -4.7819     6.6942     7.6882 H       
  52 H52           -4.3312     5.5232     5.3819 H       
@<TRIPOS>BOND
   1    1    2 ar
   2    1    5 ar
   3    1   34 1
   4    2   18 ar
   5    2   35 1
   6    3    4 ar
   7    3   24 1
   8    3   18 ar
   9    4    5 ar
  10    4   36 1
  11    5    6 1
  12    6    7 am
  13    6   11 1
  14    7    8 am
  15    7   14 2
  16    8    9 am
  17    8   13 1
  18    9   10 1
  19    9   12 2
  20   10   11 2
  21   10   16 1
  22   13   15 1
  23   13   37 1
  24   13   38 1
  25   15   19 ar
  26   15   23 ar
  27   16   17 1
  28   17   39 1
  29   17   40 1
  30   17   41 1
  31   18   28 1
  32   19   20 ar
  33   19   42 1
  34   20   21 ar
  35   20   43 1
  36   21   22 ar
  37   21   29 1
  38   22   23 ar
  39   22   44 1
  40   23   45 1
  41   24   25 am
  42   24   46 1
  43   25   26 1
  44   25   27 2
  45   26   47 1
  46   26   48 1
  47   26   49 1
  48   29   30 1
  49   29   33 1
  50   30   31 2
  51   31   32 1
  52   31   50 1
  53   32   33 2
  54   32   51 1
  55   33   52 1

#	End of record

