#	Name: ASD01910508
#	Creating user name:	WinNT
#	Creation time:	15. 06. 2019 19:56

#	Modifying user name:	WinNT
#	Modification time:	15. 06. 2019 19:56

#	Program:	/corina/corina34_cracker 3.40 0067  02.08.2006

@<TRIPOS>MOLECULE
ASD01910508
  42   45    0    0    0
SMALL
NO_CHARGES


@<TRIPOS>ATOM
   1 O1             0.0334     1.1162     0.1128 O.3     
   2 C2             0.0373    -0.2166    -0.0587 C.2     
   3 N3             1.3078    -0.5824    -0.1464 N.2     
   4 C4             2.0164     0.5496    -0.0235 C.2     
   5 N5             1.1738     1.5287     0.1294 N.2     
   6 C6            -1.1368    -1.0957    -0.1337 C.2     
   7 C7            -2.4439    -0.7047    -0.0415 C.2     
   8 C8            -3.2319    -1.8556    -0.1643 C.2     
   9 C9            -2.4000    -2.9108    -0.3266 C.2     
  10 N10           -1.1188    -2.4585    -0.3151 N.pl3   
  11 C11            3.9354     1.5790    -1.2137 C.3     
  12 C12            3.5185     0.6662    -0.0562 C.3     
  13 C13            4.0132     1.2638     1.2630 C.3     
  14 C14            5.5410     1.3522     1.2438 C.3     
  15 C15            5.9808     2.2727     0.1010 C.3     
  16 N16            5.3887     1.7863    -1.1526 N.am    
  17 C17            6.1639     1.5351    -2.2261 C.2     
  18 C18            7.6023     1.8700    -2.1931 C.ar    
  19 O19            5.6794     1.0329    -3.2216 O.2     
  20 C20            8.5402     0.9854    -2.7297 C.ar    
  21 C21            9.8811     1.3031    -2.6967 C.ar    
  22 C22           10.2993     2.4984    -2.1321 C.ar    
  23 C23            9.3723     3.3801    -1.5975 C.ar    
  24 C24            8.0285     3.0750    -1.6304 C.ar    
  25 F25           11.6147     2.8049    -2.1023 F       
  26 H26           -2.8020     0.3043     0.1000 H       
  27 H27           -4.3108    -1.8944    -0.1347 H       
  28 H28           -2.7039    -3.9398    -0.4492 H       
  29 H29           -0.3241    -3.0063    -0.4122 H       
  30 H30            3.6728     1.1098    -2.1619 H       
  31 H31            3.4254     2.5381    -1.1247 H       
  32 H32            3.9572    -0.3218    -0.1958 H       
  33 H33            3.5933     2.2616     1.3898 H       
  34 H34            3.6966     0.6289     2.0906 H       
  35 H35            5.8940     1.7561     2.1926 H       
  36 H36            5.9611     0.3579     1.0922 H       
  37 H37            5.6376     3.2885     0.2972 H       
  38 H38            7.0678     2.2612     0.0203 H       
  39 H39            8.2156     0.0539    -3.1695 H       
  40 H40           10.6073     0.6195    -3.1111 H       
  41 H41            9.7033     4.3097    -1.1585 H       
  42 H42            7.3072     3.7626    -1.2140 H       
@<TRIPOS>BOND
   1    1    2 1
   2    1    5 1
   3    2    3 2
   4    2    6 1
   5    3    4 1
   6    4    5 2
   7    4   12 1
   8    6    7 2
   9    6   10 1
  10    7    8 1
  11    7   26 1
  12    8    9 2
  13    8   27 1
  14    9   10 1
  15    9   28 1
  16   10   29 1
  17   11   12 1
  18   11   16 1
  19   11   30 1
  20   11   31 1
  21   12   13 1
  22   12   32 1
  23   13   14 1
  24   13   33 1
  25   13   34 1
  26   14   15 1
  27   14   35 1
  28   14   36 1
  29   15   16 1
  30   15   37 1
  31   15   38 1
  32   16   17 am
  33   17   18 1
  34   17   19 2
  35   18   20 ar
  36   18   24 ar
  37   20   21 ar
  38   20   39 1
  39   21   22 ar
  40   21   40 1
  41   22   23 ar
  42   22   25 1
  43   23   24 ar
  44   23   41 1
  45   24   42 1

#	End of record

