#	Name: ASD03930069
#	Creating user name:	WinNT
#	Creation time:	15. 06. 2019 20:47

#	Modifying user name:	WinNT
#	Modification time:	15. 06. 2019 20:47

#	Program:	/corina/corina34_cracker 3.40 0067  02.08.2006

@<TRIPOS>MOLECULE
ASD03930069
  32   34    0    0    0
SMALL
NO_CHARGES


@<TRIPOS>ATOM
   1 C1            -0.0166     1.3713     0.0096 C.ar    
   2 C2             0.0021    -0.0041     0.0020 C.ar    
   3 C3             1.2047    -0.7103    -0.0018 C.ar    
   4 C4             2.4072    -0.0329     0.0008 C.ar    
   5 C5             2.3827     1.3784    -0.0149 C.ar    
   6 C6             1.1892     2.0819     0.0019 C.ar    
   7 C7             3.7137    -0.7724     0.0507 C.3     
   8 N8             4.8026    -0.0595    -0.6232 N.am    
   9 S9             5.1688     1.4990    -0.1379 S.o2    
  10 C10            3.5590     2.2615    -0.0693 C.2     
  11 S11            1.5288     3.8071     0.0059 S.3     
  12 C12            3.2625     3.5394    -0.0554 C.2     
  13 O13            5.6525     1.4201     1.1959 O.2     
  14 O14            5.8790     2.1141    -1.2039 O.2     
  15 C15            5.5575    -0.7007    -1.7026 C.3     
  16 N16            1.1921    -2.1099    -0.0079 N.3     
  17 C17            0.5025    -2.6354     1.1780 C.3     
  18 C18            0.5845    -2.6256    -1.2419 C.3     
  19 H19           -0.9579     1.9008     0.0169 H       
  20 H20           -0.9316    -0.5469    -0.0006 H       
  21 H21            3.9891    -0.9278     1.0939 H       
  22 H22            3.5846    -1.7450    -0.4241 H       
  23 H23            3.9966     4.3312    -0.0780 H       
  24 H24            5.0767    -0.4891    -2.6577 H       
  25 H25            6.5758    -0.3120    -1.7145 H       
  26 H26            5.5817    -1.7781    -1.5388 H       
  27 H27           -0.5267    -2.2767     1.1884 H       
  28 H28            0.5072    -3.7249     1.1481 H       
  29 H29            1.0153    -2.2943     2.0774 H       
  30 H30            1.1568    -2.2775    -2.1017 H       
  31 H31            0.5875    -3.7154    -1.2205 H       
  32 H32           -0.4418    -2.2666    -1.3191 H       
@<TRIPOS>BOND
   1    1    2 ar
   2    1    6 ar
   3    1   19 1
   4    2    3 ar
   5    2   20 1
   6    3    4 ar
   7    3   16 1
   8    4    5 ar
   9    4    7 1
  10    5    6 ar
  11    5   10 1
  12    6   11 1
  13    7    8 1
  14    7   21 1
  15    7   22 1
  16    8    9 am
  17    8   15 1
  18    9   10 1
  19    9   13 2
  20    9   14 2
  21   10   12 2
  22   11   12 1
  23   12   23 1
  24   15   24 1
  25   15   25 1
  26   15   26 1
  27   16   17 1
  28   16   18 1
  29   17   27 1
  30   17   28 1
  31   17   29 1
  32   18   30 1
  33   18   31 1
  34   18   32 1

#	End of record

