#	Name: ASD01916873
#	Creating user name:	WinNT
#	Creation time:	15. 06. 2019 20:08

#	Modifying user name:	WinNT
#	Modification time:	15. 06. 2019 20:08

#	Program:	/corina/corina34_cracker 3.40 0067  02.08.2006

@<TRIPOS>MOLECULE
ASD01916873
  62   66    0    0    0
SMALL
NO_CHARGES


@<TRIPOS>ATOM
   1 C1            -0.0095     1.3685     0.1543 C.ar    
   2 C2             0.0160     0.0089     0.4186 C.ar    
   3 C3             1.2262    -0.6493     0.5680 C.ar    
   4 C4             2.4114     0.0475     0.4535 C.ar    
   5 C5             2.3903     1.4152     0.1873 C.ar    
   6 C6             1.1713     2.0731     0.0383 C.ar    
   7 C7             3.6627     2.1690     0.0638 C.2     
   8 N8             4.8889     1.6492     0.1866 N.2     
   9 N9             3.7674     3.4558    -0.1898 N.2     
  10 N10            5.1390     3.7556    -0.2210 N.pl3   
  11 C11            5.7901     2.5938     0.0194 C.2     
  12 C12            7.2580     2.4165     0.0832 C.ar    
  13 C13            5.7452     5.0659    -0.4693 C.3     
  14 C14            5.8768     5.8134     0.8326 C.2     
  15 O15            5.5011     5.3019     1.8662 O.2     
  16 N16            6.4119     7.0503     0.8484 N.am    
  17 C17            6.5495     7.7972     2.1080 C.3     
  18 C18            7.9943     8.2947     2.2235 C.3     
  19 N19            8.3477     9.0479     1.0129 N.3     
  20 C20            8.3056     8.1907    -0.1793 C.3     
  21 C21            6.8792     7.6865    -0.3925 C.3     
  22 C22            9.5920     9.6527     1.1480 C.ar    
  23 C23           10.1052    10.4144     0.1034 C.ar    
  24 N24           10.2758     9.5030     2.2721 N.ar    
  25 C25           11.3448    11.0106     0.2513 C.ar    
  26 C26           12.0317    10.8242     1.4433 C.ar    
  27 C27           11.4599    10.0600     2.4409 C.ar    
  28 C28            8.0872     3.5161     0.3049 C.ar    
  29 C29            9.4550     3.3443     0.3633 C.ar    
  30 C30           10.0044     2.0850     0.2020 C.ar    
  31 C31            9.1874     0.9905    -0.0181 C.ar    
  32 C32            7.8177     1.1483    -0.0724 C.ar    
  33 F33           -1.1423    -0.6772     0.5315 F       
  34 C34            1.2478    -2.1283     0.8564 C.3     
  35 C35           11.9363    11.8432    -0.8568 C.3     
  36 H36           -0.9548     1.8769     0.0345 H       
  37 H37            3.3542    -0.4662     0.5705 H       
  38 H38            1.1505     3.1330    -0.1684 H       
  39 H39            6.7319     4.9316    -0.9125 H       
  40 H40            5.1144     5.6345    -1.1526 H       
  41 H41            5.8683     8.6481     2.1053 H       
  42 H42            6.3192     7.1429     2.9487 H       
  43 H43            8.0872     8.9426     3.0951 H       
  44 H44            8.6650     7.4422     2.3303 H       
  45 H45            8.6245     8.7632    -1.0504 H       
  46 H46            8.9721     7.3397    -0.0391 H       
  47 H47            6.8651     6.9609    -1.2057 H       
  48 H48            6.2268     8.5253    -0.6351 H       
  49 H49            9.5438    10.5383    -0.8109 H       
  50 H50           13.0017    11.2758     1.5903 H       
  51 H51           11.9908     9.9124     3.3698 H       
  52 H52            7.6595     4.4999     0.4302 H       
  53 H53           10.0981     4.1949     0.5348 H       
  54 H54           11.0757     1.9557     0.2478 H       
  55 H55            9.6222     0.0099    -0.1436 H       
  56 H56            7.1808     0.2932    -0.2443 H       
  57 H57            1.2706    -2.6813    -0.0826 H       
  58 H58            2.1339    -2.3713     1.4428 H       
  59 H59            0.3544    -2.4021     1.4176 H       
  60 H60           11.6294    12.8819    -0.7343 H       
  61 H61           13.0238    11.7788    -0.8188 H       
  62 H62           11.5837    11.4712    -1.8188 H       
@<TRIPOS>BOND
   1    1    2 ar
   2    1    6 ar
   3    1   36 1
   4    2    3 ar
   5    2   33 1
   6    3    4 ar
   7    3   34 1
   8    4    5 ar
   9    4   37 1
  10    5    6 ar
  11    5    7 1
  12    6   38 1
  13    7    8 1
  14    7    9 2
  15    8   11 2
  16    9   10 1
  17   10   11 1
  18   10   13 1
  19   11   12 1
  20   12   28 ar
  21   12   32 ar
  22   13   14 1
  23   13   39 1
  24   13   40 1
  25   14   15 2
  26   14   16 am
  27   16   17 1
  28   16   21 1
  29   17   18 1
  30   17   41 1
  31   17   42 1
  32   18   19 1
  33   18   43 1
  34   18   44 1
  35   19   20 1
  36   19   22 1
  37   20   21 1
  38   20   45 1
  39   20   46 1
  40   21   47 1
  41   21   48 1
  42   22   23 ar
  43   22   24 ar
  44   23   25 ar
  45   23   49 1
  46   24   27 ar
  47   25   26 ar
  48   25   35 1
  49   26   27 ar
  50   26   50 1
  51   27   51 1
  52   28   29 ar
  53   28   52 1
  54   29   30 ar
  55   29   53 1
  56   30   31 ar
  57   30   54 1
  58   31   32 ar
  59   31   55 1
  60   32   56 1
  61   34   57 1
  62   34   58 1
  63   34   59 1
  64   35   60 1
  65   35   61 1
  66   35   62 1

#	End of record

