#	Name: ASD02039015
#	Creating user name:	WinNT
#	Creation time:	15. 06. 2019 20:17

#	Modifying user name:	WinNT
#	Modification time:	15. 06. 2019 20:17

#	Program:	/corina/corina34_cracker 3.40 0067  02.08.2006

@<TRIPOS>MOLECULE
ASD02039015
  42   46    0    0    0
SMALL
NO_CHARGES


@<TRIPOS>ATOM
   1 N1             0.0236     1.2846    -0.3616 N.2     
   2 N2             0.0400    -0.0018    -0.3630 N.2     
   3 C3             1.2245     1.7332    -0.0879 C.2     
   4 O4             2.0204     0.6620     0.0880 O.3     
   5 C5             1.2411    -0.4221    -0.0928 C.2     
   6 N6             1.6034     3.0605     0.0028 N.pl3   
   7 C7             0.6393     4.0714    -0.0882 C.ar    
   8 C8             1.6810    -1.8604     0.0010 C.3     
   9 O9             2.1175    -2.3098    -1.2833 O.3     
  10 C10            2.5503    -3.5955    -1.3731 C.ar    
  11 C11            2.9853    -4.0907    -2.5862 C.ar    
  12 C12            2.5579    -4.4048    -0.2398 C.ar    
  13 C13            2.9930    -5.7099    -0.3120 C.ar    
  14 C14            3.4300    -6.2303    -1.5253 C.ar    
  15 C15            3.4293    -5.4141    -2.6722 C.ar    
  16 C16           -0.6623     3.8292     0.3296 C.ar    
  17 C17            0.9861     5.3186    -0.5911 C.ar    
  18 C18            0.0356     6.3175    -0.6811 C.ar    
  19 C19           -1.2657     6.0781    -0.2701 C.ar    
  20 C20           -1.6154     4.8300     0.2398 C.ar    
  21 N21            3.8693    -7.5355    -1.6184 N.am    
  22 C22            4.2919    -8.0411    -2.7902 C.2     
  23 C23            4.3059    -7.2659    -3.9695 C.2     
  24 O24            4.6729    -9.1980    -2.8353 O.2     
  25 C25            3.8916    -5.9751    -3.9432 C.2     
  26 O26           -2.3715     6.8802    -0.2557 O.3     
  27 C27           -3.4925     5.9868    -0.1204 C.3     
  28 O28           -2.9400     4.8487     0.5694 O.3     
  29 H29            2.5371     3.2907     0.1294 H       
  30 H30            2.5018    -1.9436     0.7134 H       
  31 H31            0.8453    -2.4748     0.3362 H       
  32 H32            2.9824    -3.4603    -3.4632 H       
  33 H33            2.2199    -4.0053     0.7049 H       
  34 H34            2.9950    -6.3285     0.5733 H       
  35 H35           -0.9315     2.8606     0.7243 H       
  36 H36            1.9998     5.5081    -0.9119 H       
  37 H37            0.3076     7.2867    -1.0722 H       
  38 H38            3.8734    -8.0960    -0.8268 H       
  39 H39            4.6521    -7.7011    -4.8953 H       
  40 H40            3.8988    -5.3749    -4.8411 H       
  41 H41           -4.2802     6.4482     0.4752 H       
  42 H42           -3.8718     5.6972    -1.1004 H       
@<TRIPOS>BOND
   1    1    2 1
   2    1    3 2
   3    2    5 2
   4    3    4 1
   5    3    6 1
   6    4    5 1
   7    5    8 1
   8    6    7 1
   9    6   29 1
  10    7   16 ar
  11    7   17 ar
  12    8    9 1
  13    8   30 1
  14    8   31 1
  15    9   10 1
  16   10   11 ar
  17   10   12 ar
  18   11   15 ar
  19   11   32 1
  20   12   13 ar
  21   12   33 1
  22   13   14 ar
  23   13   34 1
  24   14   15 ar
  25   14   21 1
  26   15   25 1
  27   16   20 ar
  28   16   35 1
  29   17   18 ar
  30   17   36 1
  31   18   19 ar
  32   18   37 1
  33   19   20 ar
  34   19   26 1
  35   20   28 1
  36   21   22 am
  37   21   38 1
  38   22   23 1
  39   22   24 2
  40   23   25 2
  41   23   39 1
  42   25   40 1
  43   26   27 1
  44   27   28 1
  45   27   41 1
  46   27   42 1

#	End of record

