#	Name: ASD04590485
#	Creating user name:	WinNT
#	Creation time:	15. 06. 2019 20:50

#	Modifying user name:	WinNT
#	Modification time:	15. 06. 2019 20:50

#	Program:	/corina/corina34_cracker 3.40 0067  02.08.2006

@<TRIPOS>MOLECULE
ASD04590485
  49   52    0    0    0
SMALL
NO_CHARGES


@<TRIPOS>ATOM
   1 C1            -0.0169     1.3919     0.0097 C.ar    
   2 C2             0.0021    -0.0041     0.0020 C.ar    
   3 C3            -2.4013    -0.0383     0.0252 C.ar    
   4 C4            -2.4140     1.3671     0.0440 C.ar    
   5 C5            -1.2195     2.0733     0.0306 C.ar    
   6 N6            -3.6930    -0.4516     0.0451 N.2     
   7 C7            -4.4887     0.5897     0.0744 C.2     
   8 N8            -3.7459     1.7405     0.0750 N.pl3   
   9 C9            -5.9648     0.5309     0.1025 C.2     
  10 C10           -6.7499    -0.6450     0.1029 C.2     
  11 C11           -8.0524    -0.2725     0.1336 C.2     
  12 N12           -8.0970     1.0859     0.1521 N.pl3   
  13 N13           -6.7813     1.5658     0.1375 N.2     
  14 N14           -6.2659    -1.9644     0.0758 N.am    
  15 C15           -7.1294    -2.9992     0.0796 C.2     
  16 O16           -8.3272    -2.7914     0.1065 O.2     
  17 C17           -1.1781    -0.7176     0.0095 C.ar    
  18 N18           -6.6653    -4.2642     0.0536 N.am    
  19 C19           -7.6039    -5.3890     0.0577 C.3     
  20 O20            1.1915    -0.6643    -0.0133 O.3     
  21 C21            1.1408    -2.0924    -0.0205 C.3     
  22 C22           -6.8353    -6.6848     0.0251 C.ar    
  23 C23           -6.4588    -7.2945     1.2074 C.ar    
  24 O24            1.1536     2.0847     0.0022 O.3     
  25 C25            1.0634     3.5108     0.0108 C.3     
  26 C26           -5.7543    -8.4831     1.1788 C.ar    
  27 C27           -5.4255    -9.0633    -0.0346 C.ar    
  28 C28           -5.8031    -8.4518    -1.2181 C.ar    
  29 C29           -6.5121    -7.2659    -1.1869 C.ar    
  30 F30           -4.7364   -10.2250    -0.0638 F       
  31 H31           -1.2293     3.1532     0.0368 H       
  32 H32           -4.0893     2.6474     0.0942 H       
  33 H33           -8.9038    -0.9368     0.1414 H       
  34 H34           -8.9006     1.6287     0.1746 H       
  35 H35           -5.3104    -2.1301     0.0543 H       
  36 H36           -1.1583    -1.7974     0.0027 H       
  37 H37           -5.7098    -4.4300     0.0321 H       
  38 H38           -8.2131    -5.3505     0.9607 H       
  39 H39           -8.2491    -5.3271    -0.8187 H       
  40 H40            2.1548    -2.4919    -0.0327 H       
  41 H41            0.6232    -2.4420     0.8728 H       
  42 H42            0.6056    -2.4325    -0.9070 H       
  43 H43           -6.7151    -6.8416     2.1537 H       
  44 H44            0.5362     3.8362     0.9076 H       
  45 H45            2.0660     3.9384     0.0035 H       
  46 H46            0.5192     3.8458    -0.8723 H       
  47 H47           -5.4600    -8.9590     2.1025 H       
  48 H48           -5.5472    -8.9034    -2.1652 H       
  49 H49           -6.8068    -6.7888    -2.1099 H       
@<TRIPOS>BOND
   1    1    2 ar
   2    1   24 1
   3    1    5 ar
   4    2   17 ar
   5    2   20 1
   6    3    4 ar
   7    3    6 1
   8    3   17 ar
   9    4    5 ar
  10    4    8 1
  11    5   31 1
  12    6    7 2
  13    7    8 1
  14    7    9 1
  15    8   32 1
  16    9   10 1
  17    9   13 2
  18   10   11 2
  19   10   14 1
  20   11   12 1
  21   11   33 1
  22   12   13 1
  23   12   34 1
  24   14   15 am
  25   14   35 1
  26   15   16 2
  27   15   18 am
  28   17   36 1
  29   18   19 1
  30   18   37 1
  31   19   22 1
  32   19   38 1
  33   19   39 1
  34   20   21 1
  35   21   40 1
  36   21   41 1
  37   21   42 1
  38   22   23 ar
  39   22   29 ar
  40   23   26 ar
  41   23   43 1
  42   24   25 1
  43   25   44 1
  44   25   45 1
  45   25   46 1
  46   26   27 ar
  47   26   47 1
  48   27   28 ar
  49   27   30 1
  50   28   29 ar
  51   28   48 1
  52   29   49 1

#	End of record

