#	Name: ASD05430561
#	Creating user name:	WinNT
#	Creation time:	15. 06. 2019 21:00

#	Modifying user name:	WinNT
#	Modification time:	15. 06. 2019 21:00

#	Program:	/corina/corina34_cracker 3.40 0067  02.08.2006

@<TRIPOS>MOLECULE
ASD05430561
  36   37    0    0    0
SMALL
NO_CHARGES


@<TRIPOS>ATOM
   1 C1            -0.0720     1.4133     0.0112 C.ar    
   2 C2            -0.0690     0.0083     0.0229 C.ar    
   3 C3             1.1417     2.1039     0.0639 C.ar    
   4 C4             2.3171     1.4106     0.1262 C.ar    
   5 C5             2.3207     0.0229     0.1373 C.ar    
   6 C6             1.1354    -0.6793     0.0863 C.ar    
   7 C7             1.1539     3.6108     0.0516 C.3     
   8 C8             1.1471    -2.1862     0.0990 C.3     
   9 C9             1.7879    -2.7022    -1.1909 C.3     
  10 C10            1.9535    -2.6798     1.3020 C.3     
  11 C11            1.8182     4.1259     1.3300 C.3     
  12 C12            1.9387     4.1045    -1.1655 C.3     
  13 N13           -1.3935    -0.3761    -0.0381 N.pl3   
  14 C14           -2.1425     0.7586    -0.0838 C.2     
  15 N15           -1.3701     1.8054    -0.0600 N.2     
  16 C16           -1.8988    -1.7511    -0.0517 C.3     
  17 H17            3.2531     1.9479     0.1668 H       
  18 H18            3.2584    -0.5106     0.1865 H       
  19 H19            0.1304     3.9820    -0.0011 H       
  20 H20            0.1246    -2.5568     0.1703 H       
  21 H21            1.7964    -3.7921    -1.1817 H       
  22 H22            1.2135    -2.3505    -2.0479 H       
  23 H23            2.8105    -2.3315    -1.2621 H       
  24 H24            1.4969    -2.3122     2.2210 H       
  25 H25            1.9619    -3.7697     1.3112 H       
  26 H26            2.9760    -2.3091     1.2307 H       
  27 H27            2.8416     3.7547     1.3826 H       
  28 H28            1.8270     5.2158     1.3211 H       
  29 H29            1.2590     3.7742     2.1970 H       
  30 H30            1.4655     3.7375    -2.0763 H       
  31 H31            1.9476     5.1944    -1.1744 H       
  32 H32            2.9622     3.7333    -1.1128 H       
  33 H33           -3.2208     0.7865    -0.1363 H       
  34 H34           -1.9573    -2.1269     0.9698 H       
  35 H35           -2.8909    -1.7692    -0.5028 H       
  36 H36           -1.2242    -2.3804    -0.6323 H       
@<TRIPOS>BOND
   1    1    2 ar
   2    1    3 ar
   3    1   15 1
   4    2   13 1
   5    2    6 ar
   6    3    4 ar
   7    3    7 1
   8    4    5 ar
   9    4   17 1
  10    5    6 ar
  11    5   18 1
  12    6    8 1
  13    7   11 1
  14    7   12 1
  15    7   19 1
  16    8    9 1
  17    8   10 1
  18    8   20 1
  19    9   21 1
  20    9   22 1
  21    9   23 1
  22   10   24 1
  23   10   25 1
  24   10   26 1
  25   11   27 1
  26   11   28 1
  27   11   29 1
  28   12   30 1
  29   12   31 1
  30   12   32 1
  31   13   14 1
  32   13   16 1
  33   14   15 2
  34   14   33 1
  35   16   34 1
  36   16   35 1
  37   16   36 1

#	End of record

