#	Name: ASD03091832
#	Creating user name:	WinNT
#	Creation time:	15. 06. 2019 20:31

#	Modifying user name:	WinNT
#	Modification time:	15. 06. 2019 20:31

#	Program:	/corina/corina34_cracker 3.40 0067  02.08.2006

@<TRIPOS>MOLECULE
ASD03091832
  47   51    0    0    0
SMALL
NO_CHARGES


@<TRIPOS>ATOM
   1 N1            -0.0165     1.3637     0.0095 N.pl3   
   2 C2             0.0021    -0.0041     0.0020 C.2     
   3 C3             1.2706    -0.4450    -0.0125 C.2     
   4 C4             2.1353     0.7366    -0.0144 C.ar    
   5 C5             3.5207     0.9230    -0.0266 C.ar    
   6 C6             4.0374     2.1847    -0.0247 C.ar    
   7 C7             3.1890     3.2976    -0.0107 C.ar    
   8 C8             1.8098     3.1298     0.0016 C.ar    
   9 C9             1.2728     1.8492    -0.0002 C.ar    
  10 C10            3.7652     4.6636    -0.0084 C.ar    
  11 C11            5.1478     4.8426    -0.1256 C.ar    
  12 C12            5.6369     6.1370    -0.1183 C.ar    
  13 C13            4.7226     7.1819     0.0054 C.ar    
  14 N14            3.4297     6.9196     0.1113 N.ar    
  15 N15            2.9713     5.7208     0.0994 N.ar    
  16 O16            5.1579     8.4671     0.0177 O.3     
  17 C17            3.7403    11.8387     0.8687 C.3     
  18 C18            4.7688    10.6964     0.8671 C.3     
  19 C19            4.1653     9.4869     0.1474 C.3     
  20 C20            3.6780     9.9032    -1.2434 C.3     
  21 C21            2.7234    11.0992    -1.0988 C.3     
  22 C22            1.7111    10.7637     0.0206 C.3     
  23 C23            2.3830    11.2523     1.3206 C.3     
  24 N24            3.5153    12.2311    -0.5480 N.3     
  25 C25            2.7631    13.4901    -0.6325 C.3     
  26 H26           -0.8178     1.9102     0.0165 H       
  27 H27           -0.8738    -0.6359     0.0073 H       
  28 H28            1.5921    -1.4761    -0.0207 H       
  29 H29            4.1810     0.0684    -0.0371 H       
  30 H30            5.1081     2.3262    -0.0338 H       
  31 H31            1.1585     3.9913     0.0127 H       
  32 H32            5.8128     3.9967    -0.2186 H       
  33 H33            6.6956     6.3319    -0.2054 H       
  34 H34            4.0563    12.6748     1.4925 H       
  35 H35            5.6710    11.0182     0.3468 H       
  36 H36            5.0146    10.4251     1.8938 H       
  37 H37            3.3247     9.1033     0.7255 H       
  38 H38            4.5311    10.1893    -1.8587 H       
  39 H39            3.1518     9.0705    -1.7103 H       
  40 H40            2.2310    11.3475    -2.0390 H       
  41 H41            0.7734    11.2944    -0.1444 H       
  42 H42            1.5368     9.6886     0.0646 H       
  43 H43            2.5391    10.4175     2.0039 H       
  44 H44            1.7758    12.0233     1.7949 H       
  45 H45            3.3232    14.2820    -0.1352 H       
  46 H46            2.6125    13.7539    -1.6793 H       
  47 H47            1.7955    13.3686    -0.1455 H       
@<TRIPOS>BOND
   1    1    2 1
   2    1    9 1
   3    1   26 1
   4    2    3 2
   5    2   27 1
   6    3    4 1
   7    3   28 1
   8    4    5 ar
   9    4    9 ar
  10    5    6 ar
  11    5   29 1
  12    6    7 ar
  13    6   30 1
  14    7    8 ar
  15    7   10 1
  16    8    9 ar
  17    8   31 1
  18   10   11 ar
  19   10   15 ar
  20   11   12 ar
  21   11   32 1
  22   12   13 ar
  23   12   33 1
  24   13   14 ar
  25   13   16 1
  26   14   15 ar
  27   16   19 1
  28   17   18 1
  29   17   23 1
  30   17   24 1
  31   17   34 1
  32   18   19 1
  33   18   35 1
  34   18   36 1
  35   19   20 1
  36   19   37 1
  37   20   21 1
  38   20   38 1
  39   20   39 1
  40   21   22 1
  41   21   24 1
  42   21   40 1
  43   22   23 1
  44   22   41 1
  45   22   42 1
  46   23   43 1
  47   23   44 1
  48   24   25 1
  49   25   45 1
  50   25   46 1
  51   25   47 1

#	End of record

