#	Name: ASD03430334
#	Creating user name:	WinNT
#	Creation time:	15. 06. 2019 20:40

#	Modifying user name:	WinNT
#	Modification time:	15. 06. 2019 20:40

#	Program:	/corina/corina34_cracker 3.40 0067  02.08.2006

@<TRIPOS>MOLECULE
ASD03430334
  63   67    0    0    0
SMALL
NO_CHARGES


@<TRIPOS>ATOM
   1 O1            -0.0164     1.3592     0.0095 O.3     
   2 C2             0.0021    -0.0041     0.0020 C.ar    
   3 C3             1.2402    -0.4882    -0.4138 C.ar    
   4 C4             2.1042     0.7143    -0.6808 C.3     
   5 C5             1.3355     1.8558    -0.0007 C.3     
   6 O6            -1.6121    -3.3142     0.5370 O.3     
   7 C7            -0.7764    -2.2766     0.2540 C.ar    
   8 C8             0.4629    -2.7338    -0.1763 C.ar    
   9 C9             0.4020    -4.2487    -0.1812 C.3     
  10 C10           -1.1212    -4.5067    -0.0982 C.3     
  11 C11            1.4638    -1.8454    -0.5042 C.ar    
  12 C12           -0.9997    -0.9068     0.3364 C.ar    
  13 N13            4.3410     0.7055    -1.1512 N.am    
  14 C14            3.4877     0.5590    -0.1180 C.2     
  15 C15            2.2971     0.9660    -2.1468 C.ar    
  16 C16            1.4331     1.1879    -3.1958 C.ar    
  17 C17            1.9293     1.3929    -4.4709 C.ar    
  18 C18            3.2948     1.3746    -4.6892 C.ar    
  19 C19            4.1645     1.1528    -3.6418 C.ar    
  20 C20            3.6739     0.9460    -2.3548 C.ar    
  21 O21            3.7800     0.3441     1.0393 O.2     
  22 C22            5.7983     0.6223    -1.0264 C.3     
  23 N23            7.6691    -3.1449    -0.2668 N.3     
  24 C24            8.2169    -2.3524    -1.3751 C.3     
  25 C25            7.7758    -0.8943    -1.2280 C.3     
  26 C26            6.2461    -0.8259    -1.2341 C.3     
  27 C27            5.6995    -1.6981    -0.1005 C.3     
  28 C28            6.2008    -3.1328    -0.2802 C.3     
  29 C29            8.1846    -4.5202    -0.2980 C.3     
  30 C30            7.6925    -5.2774     0.9371 C.3     
  31 C31            7.6837    -5.2240    -1.5608 C.3     
  32 H32            1.4066     2.7727    -0.5858 H       
  33 H33            1.6972     2.0147     1.0152 H       
  34 H34            0.8157    -4.6523    -1.1054 H       
  35 H35            0.9151    -4.6622     0.6870 H       
  36 H36           -1.3314    -5.3843     0.5131 H       
  37 H37           -1.5489    -4.6174    -1.0946 H       
  38 H38            2.4247    -2.2129    -0.8329 H       
  39 H39           -1.9614    -0.5408     0.6641 H       
  40 H40            0.3671     1.2016    -3.0231 H       
  41 H41            1.2518     1.5664    -5.2939 H       
  42 H42            3.6821     1.5344    -5.6846 H       
  43 H43            5.2295     1.1391    -3.8204 H       
  44 H44            6.2643     1.2582    -1.7791 H       
  45 H45            6.0975     0.9562    -0.0329 H       
  46 H46            9.3054    -2.4061    -1.3567 H       
  47 H47            7.8497    -2.7492    -2.3215 H       
  48 H48            8.1543    -0.4926    -0.2881 H       
  49 H49            8.1695    -0.3094    -2.0593 H       
  50 H50            5.8690    -1.1903    -2.1896 H       
  51 H51            6.0454    -1.3090     0.8572 H       
  52 H52            4.6099    -1.6874    -0.1262 H       
  53 H53            5.8430    -3.5260    -1.2318 H       
  54 H54            5.8250    -3.7534     0.5333 H       
  55 H55            9.2744    -4.4997    -0.3014 H       
  56 H56            8.0494    -4.7759     1.8367 H       
  57 H57            6.6027    -5.2978     0.9405 H       
  58 H58            8.0750    -6.2978     0.9139 H       
  59 H59            8.0342    -4.6845    -2.4407 H       
  60 H60            8.0661    -6.2444    -1.5839 H       
  61 H61            6.5939    -5.2444    -1.5574 H       
  62 Cl62          14.3054     7.7727     6.8367 Cl      
  63 H63           14.3054     9.1427     6.8367 H       
@<TRIPOS>BOND
   1    1    2 1
   2    1    5 1
   3    2    3 ar
   4    2   12 ar
   5    3    4 1
   6    3   11 ar
   7    4    5 1
   8    4   14 1
   9    4   15 1
  10    5   32 1
  11    5   33 1
  12    6    7 1
  13    6   10 1
  14    7    8 ar
  15    7   12 ar
  16    8    9 1
  17    8   11 ar
  18    9   10 1
  19    9   34 1
  20    9   35 1
  21   10   36 1
  22   10   37 1
  23   11   38 1
  24   12   39 1
  25   13   14 am
  26   13   20 1
  27   13   22 1
  28   14   21 2
  29   15   16 ar
  30   15   20 ar
  31   16   17 ar
  32   16   40 1
  33   17   18 ar
  34   17   41 1
  35   18   19 ar
  36   18   42 1
  37   19   20 ar
  38   19   43 1
  39   22   26 1
  40   22   44 1
  41   22   45 1
  42   23   24 1
  43   23   28 1
  44   23   29 1
  45   24   25 1
  46   24   46 1
  47   24   47 1
  48   25   26 1
  49   25   48 1
  50   25   49 1
  51   26   27 1
  52   26   50 1
  53   27   28 1
  54   27   51 1
  55   27   52 1
  56   28   53 1
  57   28   54 1
  58   29   30 1
  59   29   31 1
  60   29   55 1
  61   30   56 1
  62   30   57 1
  63   30   58 1
  64   31   59 1
  65   31   60 1
  66   31   61 1
  67   62   63 1

#	End of record

