#	Name: ASD01885616
#	Creating user name:	WinNT
#	Creation time:	15. 06. 2019 19:49

#	Modifying user name:	WinNT
#	Modification time:	15. 06. 2019 19:49

#	Program:	/corina/corina34_cracker 3.40 0067  02.08.2006

@<TRIPOS>MOLECULE
ASD01885616
  46   50    0    0    0
SMALL
NO_CHARGES


@<TRIPOS>ATOM
   1 C1            -0.0168     1.3886     0.0097 C.ar    
   2 C2             0.0021    -0.0041     0.0020 C.ar    
   3 N3            -1.1222    -0.6917     0.0090 N.ar    
   4 C4            -2.3045    -0.0947     0.0235 C.ar    
   5 C5            -2.4036     1.2945     0.0319 C.ar    
   6 C6            -1.2502     2.0525     0.0309 C.ar    
   7 C7             1.2497     2.1570     0.0017 C.2     
   8 N8            -3.4607    -0.8642     0.0299 N.3     
   9 C9             1.6038     2.9637     1.1106 C.2     
  10 C10            2.7550     3.6612     1.1014 C.2     
  11 N11            3.5988     3.6054     0.0292 N.pl3   
  12 C12            3.2930     2.8352    -1.0666 C.2     
  13 C13            2.1010     2.0894    -1.0865 C.2     
  14 C14            4.7973     4.1887    -0.2496 C.2     
  15 N15            5.1668     3.7822    -1.4367 N.2     
  16 N16            4.2869     2.9828    -1.9291 N.2     
  17 C17            5.5588     5.1316     0.6460 C.3     
  18 C18            6.5009     4.3303     1.5467 C.3     
  19 C19            7.4514     5.1164     2.4519 C.3     
  20 C20            6.2514     4.3838     3.0553 C.3     
  21 C21           -3.1389    -2.2987     0.0187 C.3     
  22 C22           -4.4368    -3.1079     0.0865 C.3     
  23 O23           -5.2831    -2.7343    -1.0042 O.3     
  24 C24           -5.6170    -1.3438    -1.0237 C.3     
  25 C25           -4.3311    -0.5167    -1.1028 C.3     
  26 Cl26           1.6973     1.1097    -2.4616 Cl      
  27 H27            0.9476    -0.5258    -0.0101 H       
  28 H28           -3.3718     1.7729     0.0433 H       
  29 H29           -1.2975     3.1315     0.0376 H       
  30 H30            0.9476     3.0198     1.9665 H       
  31 H31            3.0145     4.2729     1.9528 H       
  32 H32            6.1401     5.8226     0.0356 H       
  33 H33            4.8571     5.6934     1.2625 H       
  34 H34            6.8647     3.3913     1.1294 H       
  35 H35            8.4404     4.6945     2.6304 H       
  36 H36            7.4056     6.2045     2.4057 H       
  37 H37            5.4161     4.9899     3.4061 H       
  38 H38            6.4509     3.4799     3.6308 H       
  39 H39           -2.6042    -2.5446    -0.8988 H       
  40 H40           -2.5151    -2.5385     0.8797 H       
  41 H41           -4.2066    -4.1712     0.0209 H       
  42 H42           -4.9451    -2.9023     1.0286 H       
  43 H43           -6.2404    -1.1314    -1.8923 H       
  44 H44           -6.1596    -1.0870    -0.1139 H       
  45 H45           -4.5775     0.5442    -1.0604 H       
  46 H46           -3.8155    -0.7342    -2.0382 H       
@<TRIPOS>BOND
   1    1    2 ar
   2    1    7 1
   3    1    6 ar
   4    2    3 ar
   5    2   27 1
   6    3    4 ar
   7    4    5 ar
   8    4    8 1
   9    5    6 ar
  10    5   28 1
  11    6   29 1
  12    7    9 1
  13    7   13 2
  14    8   21 1
  15    8   25 1
  16    9   10 2
  17    9   30 1
  18   10   11 1
  19   10   31 1
  20   11   12 1
  21   11   14 1
  22   12   13 1
  23   12   16 2
  24   13   26 1
  25   14   15 2
  26   14   17 1
  27   15   16 1
  28   17   18 1
  29   17   32 1
  30   17   33 1
  31   18   19 1
  32   18   20 1
  33   18   34 1
  34   19   20 1
  35   19   35 1
  36   19   36 1
  37   20   37 1
  38   20   38 1
  39   21   22 1
  40   21   39 1
  41   21   40 1
  42   22   23 1
  43   22   41 1
  44   22   42 1
  45   23   24 1
  46   24   25 1
  47   24   43 1
  48   24   44 1
  49   25   45 1
  50   25   46 1

#	End of record

