#	Name: ASD09530004
#	Creating user name:	WinNT
#	Creation time:	15. 06. 2019 21:22

#	Modifying user name:	WinNT
#	Modification time:	15. 06. 2019 21:22

#	Program:	/corina/corina34_cracker 3.40 0067  02.08.2006

@<TRIPOS>MOLECULE
ASD09530004
  49   51    0    0    0
SMALL
NO_CHARGES


@<TRIPOS>ATOM
   1 N1            -0.1776     2.5278    -1.1658 N.am    
   2 C2             0.0413     1.1154    -1.5114 C.3     
   3 C3             1.3535     0.6686    -0.9269 C.2     
   4 N4             2.2566     1.5178    -0.4347 N.am    
   5 C5             2.0605     2.9560    -0.3154 C.3     
   6 C6             0.9749     3.4374    -1.2799 C.3     
   7 C7            -1.3854     2.9729    -0.7662 C.2     
   8 O8            -1.5384     4.1432    -0.4870 O.2     
   9 C9            -2.5457     2.0165    -0.6662 C.3     
  10 O10            1.6013    -0.5183    -0.9016 O.2     
  11 C11           -3.7897     2.7715    -0.1938 C.3     
  12 C12           -4.1928     3.7794    -1.2391 C.ar    
  13 C13           -4.3984     3.3760    -2.5454 C.ar    
  14 C14           -4.7680     4.3004    -3.5041 C.ar    
  15 C15           -4.9327     5.6284    -3.1567 C.ar    
  16 C16           -4.7281     6.0315    -1.8506 C.ar    
  17 C17           -4.3625     5.1061    -0.8907 C.ar    
  18 C18           -4.9171     1.7954     0.0241 C.ar    
  19 C19           -5.2872     0.9296    -0.9883 C.ar    
  20 C20           -6.3211     0.0345    -0.7885 C.ar    
  21 C21           -6.9851     0.0046     0.4238 C.ar    
  22 C22           -6.6146     0.8696     1.4362 C.ar    
  23 C23           -5.5774     1.7620     1.2378 C.ar    
  24 C24           -4.1445     5.5447     0.5345 C.3     
  25 C25           -5.1700     2.7015     2.3434 C.3     
  26 H26           -0.7665     0.5096    -1.1007 H       
  27 H27            0.0680     1.0048    -2.5955 H       
  28 H28            3.1034     1.1517    -0.1348 H       
  29 H29            1.7642     3.1942     0.7061 H       
  30 H30            2.9961     3.4660    -0.5449 H       
  31 H31            1.3565     3.4213    -2.3008 H       
  32 H32            0.6714     4.4505    -1.0161 H       
  33 H33           -2.7380     1.5752    -1.6442 H       
  34 H34           -2.3062     1.2281     0.0474 H       
  35 H35           -3.5690     3.2862     0.7413 H       
  36 H36           -4.2697     2.3386    -2.8168 H       
  37 H37           -4.9279     3.9854    -4.5247 H       
  38 H38           -5.2208     6.3509    -3.9060 H       
  39 H39           -4.8564     7.0690    -1.5793 H       
  40 H40           -4.7685     0.9529    -1.9353 H       
  41 H41           -6.6107    -0.6414    -1.5796 H       
  42 H42           -7.7936    -0.6943     0.5797 H       
  43 H43           -7.1335     0.8465     2.3831 H       
  44 H44           -3.0804     5.7067     0.7061 H       
  45 H45           -4.6872     6.4724     0.7162 H       
  46 H46           -4.5084     4.7723     1.2121 H       
  47 H47           -5.6627     3.6636     2.2027 H       
  48 H48           -5.4634     2.2802     3.3049 H       
  49 H49           -4.0890     2.8405     2.3222 H       
@<TRIPOS>BOND
   1    1    2 1
   2    1    6 1
   3    1    7 am
   4    2    3 1
   5    2   26 1
   6    2   27 1
   7    3    4 am
   8    3   10 2
   9    4    5 1
  10    4   28 1
  11    5    6 1
  12    5   29 1
  13    5   30 1
  14    6   31 1
  15    6   32 1
  16    7    8 2
  17    7    9 1
  18    9   11 1
  19    9   33 1
  20    9   34 1
  21   11   12 1
  22   11   18 1
  23   11   35 1
  24   12   13 ar
  25   12   17 ar
  26   13   14 ar
  27   13   36 1
  28   14   15 ar
  29   14   37 1
  30   15   16 ar
  31   15   38 1
  32   16   17 ar
  33   16   39 1
  34   17   24 1
  35   18   19 ar
  36   18   23 ar
  37   19   20 ar
  38   19   40 1
  39   20   21 ar
  40   20   41 1
  41   21   22 ar
  42   21   42 1
  43   22   23 ar
  44   22   43 1
  45   23   25 1
  46   24   44 1
  47   24   45 1
  48   24   46 1
  49   25   47 1
  50   25   48 1
  51   25   49 1

#	End of record

