#	Name: ASD01810442
#	Creating user name:	WinNT
#	Creation time:	15. 06. 2019 19:24

#	Modifying user name:	WinNT
#	Modification time:	15. 06. 2019 19:24

#	Program:	/corina/corina34_cracker 3.40 0067  02.08.2006

@<TRIPOS>MOLECULE
ASD01810442
  44   45    0    0    0
SMALL
NO_CHARGES


@<TRIPOS>ATOM
   1 N1            -0.0179     1.4698     0.0101 N.am    
   2 C2             0.0021    -0.0041     0.0020 C.3     
   3 C3             0.8083    -0.4589     1.2226 C.3     
   4 C4             2.2778    -0.4709     0.9392 C.2     
   5 C5             2.9259     0.3252     0.1200 C.2     
   6 C6             2.2488     1.3104    -0.7843 C.3     
   7 C7             1.2621     2.1811     0.0017 C.3     
   8 C8            -1.1841     2.1453     0.0194 C.2     
   9 O9            -2.2373     1.5393     0.0211 O.2     
  10 O10           -1.1822     3.4917     0.0267 O.3     
  11 C11            3.0819    -1.4817     1.6548 C.ar    
  12 C12            4.0481    -1.0783     2.5799 C.ar    
  13 C13            4.7954    -2.0165     3.2443 C.ar    
  14 C14            4.5901    -3.3769     2.9963 C.ar    
  15 C15            3.6229    -3.7800     2.0709 C.ar    
  16 C16            2.8725    -2.8413     1.4108 C.ar    
  17 C17            5.3706    -4.3571     3.6895 C.1     
  18 N18            5.9897    -5.1347     4.2395 N.1     
  19 C19           -2.4750     4.1527     0.0365 C.3     
  20 C20           -3.2514     3.7359     1.2872 C.3     
  21 C21           -2.2724     5.6692     0.0437 C.3     
  22 C22           -3.2634     3.7495    -1.2112 C.3     
  23 H23           -1.0158    -0.3886     0.0662 H       
  24 H24            0.4777    -0.3630    -0.9107 H       
  25 H25            0.6114     0.2202     2.0522 H       
  26 H26            0.4919    -1.4633     1.5038 H       
  27 H27            4.0041     0.2671     0.0970 H       
  28 H28            3.0014     1.9491    -1.2466 H       
  29 H29            1.7097     0.7710    -1.5630 H       
  30 H30            1.1474     3.1484    -0.4875 H       
  31 H31            1.6183     2.3189     1.0226 H       
  32 H32            4.2066    -0.0273     2.7715 H       
  33 H33            5.5427    -1.7046     3.9589 H       
  34 H34            3.4642    -4.8309     1.8787 H       
  35 H35            2.1222    -3.1528     0.6991 H       
  36 H36           -2.6898     4.0232     2.1761 H       
  37 H37           -4.2219     4.2321     1.2945 H       
  38 H38           -3.3958     2.6555     1.2820 H       
  39 H39           -1.7192     5.9661    -0.8473 H       
  40 H40           -3.2428     6.1654     0.0511 H       
  41 H41           -1.7107     5.9565     0.9326 H       
  42 H42           -3.4078     2.6691    -1.2164 H       
  43 H43           -4.2339     4.2457    -1.2039 H       
  44 H44           -2.7102     4.0464    -2.1023 H       
@<TRIPOS>BOND
   1    1    2 1
   2    1    7 1
   3    1    8 am
   4    2    3 1
   5    2   23 1
   6    2   24 1
   7    3    4 1
   8    3   25 1
   9    3   26 1
  10    4    5 2
  11    4   11 1
  12    5    6 1
  13    5   27 1
  14    6    7 1
  15    6   28 1
  16    6   29 1
  17    7   30 1
  18    7   31 1
  19    8    9 2
  20    8   10 1
  21   10   19 1
  22   11   12 ar
  23   11   16 ar
  24   12   13 ar
  25   12   32 1
  26   13   14 ar
  27   13   33 1
  28   14   15 ar
  29   14   17 1
  30   15   16 ar
  31   15   34 1
  32   16   35 1
  33   17   18 3
  34   19   20 1
  35   19   22 1
  36   19   21 1
  37   20   36 1
  38   20   37 1
  39   20   38 1
  40   21   39 1
  41   21   40 1
  42   21   41 1
  43   22   42 1
  44   22   43 1
  45   22   44 1

#	End of record

