#	Name: ASD01410972
#	Creating user name:	WinNT
#	Creation time:	15. 06. 2019 19:19

#	Modifying user name:	WinNT
#	Modification time:	15. 06. 2019 19:19

#	Program:	/corina/corina34_cracker 3.40 0067  02.08.2006

@<TRIPOS>MOLECULE
ASD01410972
  84   87    0    0    0
SMALL
NO_CHARGES


@<TRIPOS>ATOM
   1 C1             0.2838     1.4071    -0.8877 C.ar    
   2 C2             0.4133     0.0836    -0.4842 C.ar    
   3 C3            -0.7057    -0.7054    -0.3102 C.ar    
   4 C4            -1.9704    -0.1807    -0.5371 C.ar    
   5 C5            -2.1080     1.1551    -0.9442 C.ar    
   6 C6            -0.9695     1.9468    -1.1129 C.ar    
   7 O7             1.3927     2.1757    -1.0562 O.3     
   8 C8             2.2306     1.8695    -2.0783 C.ar    
   9 N9            -3.1003    -0.9783    -0.3616 N.am    
  10 C10           -3.7689    -0.9514     0.8083 C.2     
  11 C11           -4.9392    -1.8750     1.0287 C.3     
  12 O12           -3.4289    -0.1840     1.6837 O.2     
  13 C13           -5.2814    -1.9179     2.5193 C.3     
  14 C14           -7.3360    -2.3010     0.4662 C.3     
  15 C15           -7.6782    -2.3439     1.9568 C.3     
  16 C16           -6.4695    -2.8556     2.7431 C.3     
  17 C17           -8.8663    -3.2816     2.1805 C.3     
  18 N18            1.8983     0.9179    -2.9353 N.ar    
  19 C19           -3.5607    -1.8456    -1.4487 C.3     
  20 C20           -3.8944    -0.9932    -2.6747 C.3     
  21 C21            3.4266     2.5618    -2.2183 C.ar    
  22 C22            4.2724     2.2399    -3.2656 C.ar    
  23 C23            3.8898     1.2321    -4.1398 C.ar    
  24 C24            2.6835     0.5890    -3.9431 C.ar    
  25 C25           -6.1479    -1.3633     0.2424 C.3     
  26 C26            4.7783     0.8477    -5.2947 C.3     
  27 C27           -2.4579    -2.8440    -1.8066 C.3     
  28 C28            5.7408    -0.2563    -4.8524 C.3     
  29 C29            6.6292    -0.6406    -6.0073 C.2     
  30 O30            6.3846    -1.5864    -6.9193 O.3     
  31 C31           -1.1696    -4.6555    -0.9099 C.3     
  32 O32           -2.1901    -3.6818    -0.6804 O.3     
  33 N33            7.7875    -0.1071    -6.3128 N.2     
  34 C34            8.2097    -0.7617    -7.4092 C.2     
  35 N35            7.3018    -1.6409    -7.7113 N.2     
  36 C36            9.4972    -0.5174    -8.1534 C.3     
  37 C37           10.3387    -1.7952    -8.1498 C.3     
  38 C38            9.1841    -0.1170    -9.5965 C.3     
  39 C39            3.7981     3.6491    -1.2433 C.3     
  40 F40            5.0393     4.1888    -1.5973 F       
  41 F41            2.8263     4.6551    -1.2740 F       
  42 F42            3.8736     3.1129     0.0467 F       
  43 C43           -3.4469     1.7212    -1.1881 C.2     
  44 O44           -4.4364     1.0377    -1.0141 O.2     
  45 O45           -3.5736     2.9967    -1.6039 O.3     
  46 H46            1.3950    -0.3300    -0.3062 H       
  47 H47           -0.5969    -1.7333     0.0029 H       
  48 H48           -1.0674     2.9758    -1.4257 H       
  49 H49           -4.6807    -2.8771     0.6863 H       
  50 H50           -4.4203    -2.2824     3.0795 H       
  51 H51           -5.5399    -0.9159     2.8617 H       
  52 H52           -7.0775    -3.3031     0.1238 H       
  53 H53           -8.1970    -1.9365    -0.0940 H       
  54 H54           -7.9366    -1.3419     2.2992 H       
  55 H55           -6.2110    -3.8576     2.4006 H       
  56 H56           -6.7133    -2.8861     3.8050 H       
  57 H57           -8.6078    -4.2836     1.8381 H       
  58 H58           -9.1101    -3.3121     3.2425 H       
  59 H59           -9.7274    -2.9171     1.6204 H       
  60 H60           -4.4512    -2.3870    -1.1293 H       
  61 H61           -2.9968    -0.4752    -3.0123 H       
  62 H62           -4.2656    -1.6352    -3.4735 H       
  63 H63           -4.6587    -0.2619    -2.4116 H       
  64 H64            5.2086     2.7614    -3.3998 H       
  65 H65            2.3813    -0.1961    -4.6203 H       
  66 H66           -6.4063    -0.3613     0.5849 H       
  67 H67           -5.9041    -1.3328    -0.8195 H       
  68 H68            4.1651     0.4860    -6.1201 H       
  69 H69            5.3484     1.7180    -5.6198 H       
  70 H70           -2.7821    -3.4576    -2.6471 H       
  71 H71           -1.5524    -2.3024    -2.0801 H       
  72 H72            6.3539     0.1055    -4.0270 H       
  73 H73            5.1707    -1.1266    -4.5272 H       
  74 H74           -1.0261    -5.2508    -0.0082 H       
  75 H75           -1.4671    -5.3067    -1.7318 H       
  76 H76           -0.2374    -4.1515    -1.1648 H       
  77 H77           10.0520     0.2844    -7.6661 H       
  78 H78           10.5618    -2.0804    -7.1217 H       
  79 H79            9.7839    -2.5970    -8.6371 H       
  80 H80           11.2699    -1.6185    -8.6880 H       
  81 H81            8.5845     0.7933    -9.5990 H       
  82 H82           10.1153     0.0597   -10.1347 H       
  83 H83            8.6293    -0.9188   -10.0837 H       
  84 H84           -4.4718     3.3235    -1.7504 H       
@<TRIPOS>BOND
   1    1    2 ar
   2    1    7 1
   3    1    6 ar
   4    2    3 ar
   5    2   46 1
   6    3    4 ar
   7    3   47 1
   8    4    5 ar
   9    4    9 1
  10    5    6 ar
  11    5   43 1
  12    6   48 1
  13    7    8 1
  14    8   21 ar
  15    8   18 ar
  16    9   10 am
  17    9   19 1
  18   10   12 2
  19   10   11 1
  20   11   13 1
  21   11   25 1
  22   11   49 1
  23   13   16 1
  24   13   50 1
  25   13   51 1
  26   14   15 1
  27   14   25 1
  28   14   52 1
  29   14   53 1
  30   15   16 1
  31   15   17 1
  32   15   54 1
  33   16   55 1
  34   16   56 1
  35   17   57 1
  36   17   58 1
  37   17   59 1
  38   18   24 ar
  39   19   20 1
  40   19   27 1
  41   19   60 1
  42   20   61 1
  43   20   62 1
  44   20   63 1
  45   21   22 ar
  46   21   39 1
  47   22   23 ar
  48   22   64 1
  49   23   24 ar
  50   23   26 1
  51   24   65 1
  52   25   66 1
  53   25   67 1
  54   26   28 1
  55   26   68 1
  56   26   69 1
  57   27   32 1
  58   27   70 1
  59   27   71 1
  60   28   29 1
  61   28   72 1
  62   28   73 1
  63   29   30 1
  64   29   33 2
  65   30   35 1
  66   31   32 1
  67   31   74 1
  68   31   75 1
  69   31   76 1
  70   33   34 1
  71   34   35 2
  72   34   36 1
  73   36   37 1
  74   36   38 1
  75   36   77 1
  76   37   78 1
  77   37   79 1
  78   37   80 1
  79   38   81 1
  80   38   82 1
  81   38   83 1
  82   39   40 1
  83   39   41 1
  84   39   42 1
  85   43   44 2
  86   43   45 1
  87   45   84 1

#	End of record

