#	Name: ASD01001234
#	Creating user name:	WinNT
#	Creation time:	15. 06. 2019 18:55

#	Modifying user name:	WinNT
#	Modification time:	15. 06. 2019 18:55

#	Program:	/corina/corina34_cracker 3.40 0067  02.08.2006

@<TRIPOS>MOLECULE
ASD01001234
  50   53    0    0    0
SMALL
NO_CHARGES


@<TRIPOS>ATOM
   1 C1            -0.0176     1.3716     0.0072 C.ar    
   2 C2            -0.0004    -0.0160    -0.0157 C.ar    
   3 C3            -1.1773    -0.7324    -0.0172 C.ar    
   4 C4            -2.3954    -0.0625     0.0047 C.ar    
   5 C5            -2.4085     1.3465     0.0285 C.ar    
   6 C6            -1.2026     2.0508     0.0346 C.ar    
   7 N7            -3.7080    -0.4844     0.0098 N.pl3   
   8 C8            -4.5428     0.5943     0.0365 C.2     
   9 C9            -3.8142     1.7292     0.0497 C.2     
  10 C10           -6.0540     0.5879     0.0483 C.3     
  11 N11           -6.5273     1.9306    -0.3257 N.3     
  12 C12           -5.8899     2.9731     0.4907 C.3     
  13 C13           -4.4159     3.1108     0.0838 C.3     
  14 C14           -6.5650    -0.4249    -0.9438 C.ar    
  15 C15           -6.9844    -1.6667    -0.5081 C.ar    
  16 C16           -7.4552    -2.5986    -1.4220 C.ar    
  17 C17           -7.5034    -2.2803    -2.7713 C.ar    
  18 C18           -7.0827    -1.0367    -3.2019 C.ar    
  19 C19           -6.6190    -0.1081    -2.2888 C.ar    
  20 C20           -7.9913     2.0158    -0.2390 C.3     
  21 C21            1.2816     2.1351     0.0080 C.3     
  22 C22           -8.4258     1.8599     1.2197 C.3     
  23 C23           -9.9372     2.0718     1.3271 C.3     
  24 N24          -10.3544     1.9222     2.7276 N.3     
  25 O25           -7.8680    -3.8213    -0.9960 O.3     
  26 H26            0.9443    -0.5391    -0.0328 H       
  27 H27           -1.1537    -1.8120    -0.0357 H       
  28 H28           -1.2069     3.1307     0.0521 H       
  29 H29           -3.9952    -1.4108    -0.0035 H       
  30 H30           -6.4122     0.3374     1.0468 H       
  31 H31           -6.4010     3.9226     0.3316 H       
  32 H32           -5.9520     2.6988     1.5438 H       
  33 H33           -3.8878     3.7253     0.8129 H       
  34 H34           -4.3469     3.5674    -0.9036 H       
  35 H35           -6.9456    -1.9123     0.5428 H       
  36 H36           -7.8691    -3.0041    -3.4846 H       
  37 H37           -7.1200    -0.7884    -4.2523 H       
  38 H38           -6.2906     0.8634    -2.6274 H       
  39 H39           -8.3218     2.9840    -0.6151 H       
  40 H40           -8.4375     1.2218    -0.8379 H       
  41 H41            1.5856     2.3360    -1.0192 H       
  42 H42            1.1486     3.0780     0.5386 H       
  43 H43            2.0503     1.5437     0.5054 H       
  44 H44           -8.1735     0.8587     1.5689 H       
  45 H45           -7.9108     2.5992     1.8331 H       
  46 H46          -10.1895     3.0731     0.9778 H       
  47 H47          -10.4522     1.3325     0.7136 H       
  48 H48          -11.3495     2.0577     2.8250 H       
  49 H49          -10.0740     1.0251     3.0946 H       
  50 H50           -8.8072    -3.8624    -0.7693 H       
@<TRIPOS>BOND
   1    1    2 ar
   2    1   21 1
   3    1    6 ar
   4    2    3 ar
   5    2   26 1
   6    3    4 ar
   7    3   27 1
   8    4    5 ar
   9    4    7 1
  10    5    6 ar
  11    5    9 1
  12    6   28 1
  13    7    8 1
  14    7   29 1
  15    8    9 2
  16    8   10 1
  17    9   13 1
  18   10   11 1
  19   10   14 1
  20   10   30 1
  21   11   12 1
  22   11   20 1
  23   12   13 1
  24   12   31 1
  25   12   32 1
  26   13   33 1
  27   13   34 1
  28   14   15 ar
  29   14   19 ar
  30   15   16 ar
  31   15   35 1
  32   16   17 ar
  33   16   25 1
  34   17   18 ar
  35   17   36 1
  36   18   19 ar
  37   18   37 1
  38   19   38 1
  39   20   22 1
  40   20   39 1
  41   20   40 1
  42   21   41 1
  43   21   42 1
  44   21   43 1
  45   22   23 1
  46   22   44 1
  47   22   45 1
  48   23   24 1
  49   23   46 1
  50   23   47 1
  51   24   48 1
  52   24   49 1
  53   25   50 1

#	End of record

