#	Name: ASD02610001
#	Creating user name:	WinNT
#	Creation time:	15. 06. 2019 20:25

#	Modifying user name:	WinNT
#	Modification time:	15. 06. 2019 20:25

#	Program:	/corina/corina34_cracker 3.40 0067  02.08.2006

@<TRIPOS>MOLECULE
ASD02610001
  44   46    0    0    0
SMALL
NO_CHARGES


@<TRIPOS>ATOM
   1 C1             0.6524     1.6117    -2.8743 C.ar    
   2 C2             0.7026     0.2357    -3.0843 C.ar    
   3 C3             1.7487    -0.4913    -2.5910 C.ar    
   4 C4             2.7528     0.1897    -1.8773 C.ar    
   5 C5             2.6388     1.5904    -1.7009 C.ar    
   6 N6             1.5900     2.2421    -2.2089 N.ar    
   7 C7             3.8573    -0.4924    -1.3410 C.ar    
   8 C8             4.8120     0.1946    -0.6550 C.ar    
   9 C9             4.7128     1.5712    -0.4736 C.ar    
  10 C10            3.6453     2.2756    -0.9851 C.ar    
  11 N11            3.5585     3.6562    -0.7967 N.am    
  12 C12            4.6815     4.3943    -0.6937 C.2     
  13 C13            4.5919     5.8637    -0.5920 C.ar    
  14 O14            5.7685     3.8493    -0.6846 O.2     
  15 C15            5.7552     6.6308    -0.4852 C.ar    
  16 C16            5.6673     8.0017    -0.3904 C.ar    
  17 C17            4.4238     8.6227    -0.4005 C.ar    
  18 C18            3.2644     7.8633    -0.5061 C.ar    
  19 C19            3.3439     6.4924    -0.6080 C.ar    
  20 O20            4.3414     9.9740    -0.3065 O.3     
  21 C21            5.5617    10.6847    -0.0878 C.3     
  22 C22            6.2390    10.9607    -1.4317 C.3     
  23 C23            5.2610    12.0109     0.6135 C.3     
  24 C24           -0.5065     2.3973    -3.4318 C.3     
  25 H25           -0.0848    -0.2560    -3.6362 H       
  26 H26            1.8036    -1.5590    -2.7441 H       
  27 H27            3.9489    -1.5605    -1.4722 H       
  28 H28            5.6585    -0.3364    -0.2454 H       
  29 H29            5.4829     2.0936     0.0746 H       
  30 H30            2.6899     4.0843    -0.7399 H       
  31 H31            6.7217     6.1490    -0.4766 H       
  32 H32            6.5658     8.5953    -0.3079 H       
  33 H33            2.3000     8.3495    -0.5129 H       
  34 H34            2.4429     5.9034    -0.6953 H       
  35 H35            6.2243    10.0855     0.5367 H       
  36 H36            7.1698    11.5028    -1.2650 H       
  37 H37            6.4533    10.0159    -1.9314 H       
  38 H38            5.5765    11.5599    -2.0563 H       
  39 H39            4.7785    11.8143     1.5709 H       
  40 H40            6.1918    12.5530     0.7803 H       
  41 H41            4.5984    12.6101    -0.0110 H       
  42 H42           -1.3084     2.4346    -2.6944 H       
  43 H43           -0.1798     3.4107    -3.6649 H       
  44 H44           -0.8696     1.9148    -4.3393 H       
@<TRIPOS>BOND
   1    1    2 ar
   2    1    6 ar
   3    1   24 1
   4    2    3 ar
   5    2   25 1
   6    3    4 ar
   7    3   26 1
   8    4    5 ar
   9    4    7 ar
  10    5    6 ar
  11    5   10 ar
  12    7    8 ar
  13    7   27 1
  14    8    9 ar
  15    8   28 1
  16    9   10 ar
  17    9   29 1
  18   10   11 1
  19   11   12 am
  20   11   30 1
  21   12   13 1
  22   12   14 2
  23   13   15 ar
  24   13   19 ar
  25   15   16 ar
  26   15   31 1
  27   16   17 ar
  28   16   32 1
  29   17   18 ar
  30   17   20 1
  31   18   19 ar
  32   18   33 1
  33   19   34 1
  34   20   21 1
  35   21   22 1
  36   21   23 1
  37   21   35 1
  38   22   36 1
  39   22   37 1
  40   22   38 1
  41   23   39 1
  42   23   40 1
  43   23   41 1
  44   24   42 1
  45   24   43 1
  46   24   44 1

#	End of record

