#	Name: ASD03320029
#	Creating user name:	WinNT
#	Creation time:	15. 06. 2019 20:36

#	Modifying user name:	WinNT
#	Modification time:	15. 06. 2019 20:36

#	Program:	/corina/corina34_cracker 3.40 0067  02.08.2006

@<TRIPOS>MOLECULE
ASD03320029
  63   67    0    0    0
SMALL
NO_CHARGES


@<TRIPOS>ATOM
   1 C1            -0.0562     0.3251     0.8346 C.ar    
   2 C2             0.0021    -1.0574     0.6599 C.ar    
   3 C3             1.1006     1.0722     0.8101 C.ar    
   4 C4             2.3322     0.4450     0.6105 C.ar    
   5 C5             2.3896    -0.9394     0.4357 C.ar    
   6 C6             1.2317    -1.6847     0.4604 C.ar    
   7 C7             3.5744     1.2460     0.5836 C.2     
   8 N8             3.6035     2.4225    -0.0731 N.am    
   9 O9             4.5696     0.8434     1.1539 O.2     
  10 C10           -1.2442    -1.8610     0.6868 C.ar    
  11 C11           -1.1989    -3.2419     0.5137 C.ar    
  12 C12           -2.4000    -3.9506     0.5476 C.ar    
  13 N13           -3.5357    -3.2863     0.7426 N.ar    
  14 C14           -3.5364    -1.9780     0.9024 C.ar    
  15 N15           -2.4253    -1.2728     0.8827 N.ar    
  16 N16           -2.4097    -5.3271     0.3801 N.pl3   
  17 C17           -3.6021    -6.0414     0.5318 C.ar    
  18 C18           -4.5649    -5.5970     1.4168 C.ar    
  19 C19           -5.7674    -6.3282     1.5617 C.ar    
  20 C20           -5.9632    -7.5029     0.7971 C.ar    
  21 C21           -4.9955    -7.9200    -0.0703 C.ar    
  22 C22           -3.8207    -7.1989    -0.2147 C.ar    
  23 C23            4.7935     3.2830    -0.0139 C.3     
  24 C24            5.2590     3.5748    -1.4458 C.3     
  25 N25            4.1015     4.0200    -2.2344 N.am    
  26 C26            2.9116     3.1596    -2.2936 C.3     
  27 C27            2.4482     2.8652    -0.8662 C.3     
  28 C28            4.1306     5.1966    -2.8911 C.2     
  29 C29            5.3732     5.9943    -2.9225 C.ar    
  30 O30            3.1341     5.6013    -3.4577 O.2     
  31 C31            5.3477     7.3486    -2.5757 C.ar    
  32 C32            6.5163     8.0880    -2.6074 C.ar    
  33 C33            7.7052     7.4903    -2.9806 C.ar    
  34 C34            7.7361     6.1495    -3.3249 C.ar    
  35 C35            6.5807     5.3982    -3.2931 C.ar    
  36 F36            4.1855     7.9331    -2.2113 F       
  37 C37           -6.7475    -5.8969     2.4474 C.2     
  38 C38           -7.8562    -6.5767     2.5768 C.1     
  39 O39           -8.8810    -7.2051     2.6964 O.2     
  40 H40           -1.0093     0.8105     0.9845 H       
  41 H41            1.0552     2.1428     0.9450 H       
  42 H42            3.3416    -1.4253     0.2809 H       
  43 H43            1.2759    -2.7554     0.3257 H       
  44 H44           -0.2591    -3.7505     0.3570 H       
  45 H45           -4.4765    -1.4698     1.0584 H       
  46 H46           -1.5894    -5.7945     0.1576 H       
  47 H47           -4.4010    -4.6989     1.9937 H       
  48 H48           -6.8773    -8.0689     0.9001 H       
  49 H49           -5.1481    -8.8171    -0.6519 H       
  50 H50           -3.0640    -7.5413    -0.9050 H       
  51 H51            4.5441     4.2182     0.4874 H       
  52 H52            5.5871     2.7727     0.5320 H       
  53 H53            6.0157     4.3592    -1.4318 H       
  54 H54            5.6755     2.6691    -1.8867 H       
  55 H55            2.1180     3.6698    -2.8395 H       
  56 H56            3.1610     2.2244    -2.7949 H       
  57 H57            1.6915     2.0807    -0.8817 H       
  58 H58            2.0318     3.7697    -0.4229 H       
  59 H59            6.4995     9.1343    -2.3404 H       
  60 H60            8.6148     8.0720    -3.0041 H       
  61 H61            8.6692     5.6898    -3.6154 H       
  62 H62            6.6076     4.3526    -3.5622 H       
  63 H63           -6.5930    -5.0000     3.0288 H       
@<TRIPOS>BOND
   1    1    2 ar
   2    1    3 ar
   3    1   40 1
   4    2   10 1
   5    2    6 ar
   6    3    4 ar
   7    3   41 1
   8    4    5 ar
   9    4    7 1
  10    5    6 ar
  11    5   42 1
  12    6   43 1
  13    7    8 am
  14    7    9 2
  15    8   23 1
  16    8   27 1
  17   10   11 ar
  18   10   15 ar
  19   11   12 ar
  20   11   44 1
  21   12   13 ar
  22   12   16 1
  23   13   14 ar
  24   14   15 ar
  25   14   45 1
  26   16   17 1
  27   16   46 1
  28   17   18 ar
  29   17   22 ar
  30   18   19 ar
  31   18   47 1
  32   19   20 ar
  33   19   37 1
  34   20   21 ar
  35   20   48 1
  36   21   22 ar
  37   21   49 1
  38   22   50 1
  39   23   24 1
  40   23   51 1
  41   23   52 1
  42   24   25 1
  43   24   53 1
  44   24   54 1
  45   25   26 1
  46   25   28 am
  47   26   27 1
  48   26   55 1
  49   26   56 1
  50   27   57 1
  51   27   58 1
  52   28   29 1
  53   28   30 2
  54   29   31 ar
  55   29   35 ar
  56   31   32 ar
  57   31   36 1
  58   32   33 ar
  59   32   59 1
  60   33   34 ar
  61   33   60 1
  62   34   35 ar
  63   34   61 1
  64   35   62 1
  65   37   38 2
  66   37   63 1
  67   38   39 2

#	End of record

