#	Name: ASD01150026
#	Creating user name:	WinNT
#	Creation time:	15. 06. 2019 19:03

#	Modifying user name:	WinNT
#	Modification time:	15. 06. 2019 19:03

#	Program:	/corina/corina34_cracker 3.40 0067  02.08.2006

@<TRIPOS>MOLECULE
ASD01150026
  31   32    0    0    0
SMALL
NO_CHARGES


@<TRIPOS>ATOM
   1 N1            -0.0159     1.3224     0.0093 N.ar    
   2 C2             0.0021    -0.0041     0.0020 C.ar    
   3 C3             1.2193    -0.6617    -0.0131 C.ar    
   4 C4             2.3857     0.1047    -0.0202 C.ar    
   5 N5             2.2847     1.4310    -0.0121 N.ar    
   6 C6             1.1044     2.0162     0.0023 C.ar    
   7 C7             1.0335     3.5215     0.0106 C.3     
   8 C8             0.9955     4.0382    -1.4290 C.3     
   9 I9             1.3093    -2.7548    -0.0246 I       
  10 C10            6.0193    -0.4888     0.5539 C.3     
  11 C11            4.8464     0.3092    -0.0421 C.3     
  12 C12            5.2413     0.6562    -1.4924 C.3     
  13 C13            6.2867    -0.4225    -1.8699 C.3     
  14 C14            7.0861    -0.5988    -0.5550 C.3     
  15 N15            3.6295    -0.5065    -0.0349 N.pl3   
  16 Cl16          -1.4828    -0.9033     0.0119 Cl      
  17 H17            0.1325     3.8400     0.5348 H       
  18 H18            1.9104     3.9238     0.5180 H       
  19 H19            0.9443     5.1270    -1.4231 H       
  20 H20            1.8966     3.7198    -1.9532 H       
  21 H21            0.1187     3.6359    -1.9364 H       
  22 H22            6.4295     0.0378     1.4157 H       
  23 H23            5.6831    -1.4829     0.8485 H       
  24 H24            4.6873     1.2230     0.5304 H       
  25 H25            4.3739     0.5933    -2.1495 H       
  26 H26            5.6853     1.6506    -1.5394 H       
  27 H27            5.7959    -1.3542    -2.1515 H       
  28 H28            6.9349    -0.0685    -2.6716 H       
  29 H29            7.8280     0.1929    -0.4506 H       
  30 H30            7.5649    -1.5776    -0.5280 H       
  31 H31            3.6943    -1.4743    -0.0404 H       
@<TRIPOS>BOND
   1    1    2 ar
   2    1    6 ar
   3    2    3 ar
   4    2   16 1
   5    3    4 ar
   6    3    9 1
   7    4    5 ar
   8    4   15 1
   9    5    6 ar
  10    6    7 1
  11    7    8 1
  12    7   17 1
  13    7   18 1
  14    8   19 1
  15    8   20 1
  16    8   21 1
  17   10   11 1
  18   10   14 1
  19   10   22 1
  20   10   23 1
  21   11   12 1
  22   11   15 1
  23   11   24 1
  24   12   13 1
  25   12   25 1
  26   12   26 1
  27   13   14 1
  28   13   27 1
  29   13   28 1
  30   14   29 1
  31   14   30 1
  32   15   31 1

#	End of record

