#	Name: ASD03092024
#	Creating user name:	WinNT
#	Creation time:	15. 06. 2019 20:31

#	Modifying user name:	WinNT
#	Modification time:	15. 06. 2019 20:31

#	Program:	/corina/corina34_cracker 3.40 0067  02.08.2006

@<TRIPOS>MOLECULE
ASD03092024
  46   48    0    0    0
SMALL
NO_CHARGES


@<TRIPOS>ATOM
   1 N1             0.0273     1.3644    -0.0254 N.pl3   
   2 C2             0.0185     0.0010    -0.0074 C.2     
   3 C3            -1.2872    -0.3994     0.0181 C.2     
   4 C4            -2.0875     0.7499     0.0155 C.2     
   5 N5            -1.3028     1.8025    -0.0044 N.2     
   6 C6             1.2168     2.2190    -0.0550 C.3     
   7 C7             1.6743     2.3940    -1.4802 C.2     
   8 N8             2.7587     3.1466    -1.7523 N.am    
   9 N9            -3.4873     0.7726     0.0362 N.pl3   
  10 C10           -4.1651     1.9899     0.1545 C.ar    
  11 C11           -5.4578     2.1164    -0.3365 C.ar    
  12 C12           -6.1260     3.3217    -0.2182 C.ar    
  13 C13           -5.5050     4.4022     0.3897 C.ar    
  14 C14           -4.2163     4.2764     0.8793 C.ar    
  15 C15           -3.5481     3.0726     0.7685 C.ar    
  16 F16           -7.3838     3.4463    -0.6955 F       
  17 C17            1.2049    -0.8822    -0.0151 C.ar    
  18 C18            1.0417    -2.2614     0.1134 C.ar    
  19 C19            2.1614    -3.0745     0.1040 C.ar    
  20 C20            3.4092    -2.4826    -0.0336 C.ar    
  21 C21            3.4987    -1.1081    -0.1565 C.ar    
  22 N22            2.4171    -0.3563    -0.1497 N.ar    
  23 C23            3.2035     3.3167    -3.1378 C.3     
  24 F24           -6.1582     5.5792     0.5040 F       
  25 O25            1.0666     1.8576    -2.3824 O.2     
  26 C26            3.4928     3.7946    -0.6626 C.3     
  27 C27            2.0289    -4.5694     0.2406 C.3     
  28 H28           -1.6395    -1.4202     0.0369 H       
  29 H29            0.9753     3.1928     0.3711 H       
  30 H30            2.0125     1.7547     0.5275 H       
  31 H31           -3.9869    -0.0561    -0.0316 H       
  32 H32           -5.9408     1.2747    -0.8106 H       
  33 H33           -3.7343     5.1193     1.3522 H       
  34 H34           -2.5428     2.9757     1.1509 H       
  35 H35            0.0554    -2.6887     0.2190 H       
  36 H36            4.3022    -3.0900    -0.0442 H       
  37 H37            4.4684    -0.6450    -0.2636 H       
  38 H38            2.7149     4.1891    -3.5717 H       
  39 H39            4.2841     3.4579    -3.1578 H       
  40 H40            2.9422     2.4295    -3.7147 H       
  41 H41            4.2737     3.1250    -0.3021 H       
  42 H42            3.9449     4.7170    -1.0272 H       
  43 H43            2.8061     4.0238     0.1522 H       
  44 H44            1.9252    -5.0168    -0.7479 H       
  45 H45            2.9172    -4.9698     0.7293 H       
  46 H46            1.1485    -4.8030     0.8393 H       
@<TRIPOS>BOND
   1    1    2 1
   2    1    6 1
   3    1    5 1
   4    2    3 2
   5    2   17 1
   6    3    4 1
   7    3   28 1
   8    4    5 2
   9    4    9 1
  10    6    7 1
  11    6   29 1
  12    6   30 1
  13    7    8 am
  14    7   25 2
  15    8   23 1
  16    8   26 1
  17    9   10 1
  18    9   31 1
  19   10   11 ar
  20   10   15 ar
  21   11   12 ar
  22   11   32 1
  23   12   13 ar
  24   12   16 1
  25   13   14 ar
  26   13   24 1
  27   14   15 ar
  28   14   33 1
  29   15   34 1
  30   17   18 ar
  31   17   22 ar
  32   18   19 ar
  33   18   35 1
  34   19   20 ar
  35   19   27 1
  36   20   21 ar
  37   20   36 1
  38   21   22 ar
  39   21   37 1
  40   23   38 1
  41   23   39 1
  42   23   40 1
  43   26   41 1
  44   26   42 1
  45   26   43 1
  46   27   44 1
  47   27   45 1
  48   27   46 1

#	End of record

