#	Name: ASD00841842
#	Creating user name:	WinNT
#	Creation time:	15. 06. 2019 18:43

#	Modifying user name:	WinNT
#	Modification time:	15. 06. 2019 18:43

#	Program:	/corina/corina34_cracker 3.40 0067  02.08.2006

@<TRIPOS>MOLECULE
ASD00841842
  88   93    0    0    0
SMALL
NO_CHARGES


@<TRIPOS>ATOM
   1 F1            -0.0947    -3.1577     4.7128 F       
   2 C2            -0.0051     1.3862     0.0369 C.ar    
   3 C3             0.0093    -0.0007     0.0190 C.ar    
   4 C4             1.2194    -0.6794    -0.0011 C.ar    
   5 C5             2.4062     0.0272    -0.0032 C.ar    
   6 C6             2.3891     1.4098     0.0152 C.ar    
   7 C7             1.1848     2.0884     0.0348 C.ar    
   8 C8             1.2387    -2.1861    -0.0202 C.3     
   9 C9             0.4941    -2.7108    -1.2293 C.2     
  10 N10            2.6177    -2.6805    -0.0123 N.am    
  11 C11            3.4634    -2.3342    -1.0029 C.2     
  12 N12            4.7590    -2.7005    -0.9417 N.am    
  13 O13            3.0576    -1.6914    -1.9518 O.2     
  14 C14            5.2905    -3.3763     0.2497 C.3     
  15 C15            6.5169    -2.6053     0.7481 C.3     
  16 C16            7.5240    -2.4627    -0.3953 C.3     
  17 C17            6.8889    -1.6715    -1.5411 C.3     
  18 C18            5.6654    -2.4369    -2.0677 C.3     
  19 C19            8.7653    -1.7233     0.1081 C.3     
  20 C20            9.4029    -2.5145     1.2535 C.3     
  21 C21           10.6772    -1.8018     1.7120 C.3     
  22 N22           11.6132    -1.6967     0.5853 N.3     
  23 C23           11.0408    -0.9009    -0.5080 C.3     
  24 C24            9.7774    -1.5867    -1.0328 C.3     
  25 C25           12.9018    -1.1424     1.0214 C.3     
  26 O26            0.7737    -2.5069    -2.3918 O.2     
  27 N27           -0.5343    -3.4452    -0.7729 N.am    
  28 C28            0.4677    -2.7405     1.1558 C.ar    
  29 C29           -0.5784    -3.4829     0.6224 C.ar    
  30 C30            0.6323    -2.6295     2.5183 C.ar    
  31 C31           -0.2527    -3.2636     3.3753 C.ar    
  32 C32           -1.3009    -4.0076     2.8551 C.ar    
  33 C33           -1.4656    -4.1186     1.4878 C.ar    
  34 F34           -2.1650    -4.6266     3.6890 F       
  35 C35           -0.9922    -5.8306    -2.0669 C.ar    
  36 C36            0.1858    -5.9874    -2.7824 C.ar    
  37 C37           -1.6662    -6.9411    -1.5963 C.ar    
  38 C38           -1.1673    -8.2076    -1.8376 C.ar    
  39 C39            0.0068    -8.3666    -2.5506 C.ar    
  40 C40            0.6841    -7.2597    -3.0236 C.ar    
  41 H41            0.3945    -9.3571    -2.7378 H       
  42 O42            0.8504    -4.8967    -3.2468 O.3     
  43 C43            2.0565    -5.1336    -3.9755 C.3     
  44 O44           -1.1597    -0.6936     0.0215 O.3     
  45 C45           -3.5696    -0.8751     0.0427 C.3     
  46 C46           -2.3669     0.0708     0.0431 C.3     
  47 S47           -1.6245    -4.2164    -1.7522 S.o2    
  48 O48           -2.8043    -4.3911    -0.9797 O.2     
  49 O49           -1.6042    -3.5281    -2.9952 O.2     
  50 H50           -0.9457     1.9168     0.0481 H       
  51 H51            3.3483    -0.5006    -0.0188 H       
  52 H52            3.3182     1.9605     0.0143 H       
  53 H53            1.1741     3.1682     0.0491 H       
  54 H54            2.9222    -3.2571     0.7059 H       
  55 H55            4.5289    -3.3950     1.0294 H       
  56 H56            5.5790    -4.3957    -0.0066 H       
  57 H57            6.2110    -1.6162     1.0890 H       
  58 H58            6.9776    -3.1486     1.5731 H       
  59 H59            7.8107    -3.4519    -0.7522 H       
  60 H60            6.5796    -0.6912    -1.1787 H       
  61 H61            7.6145    -1.5502    -2.3454 H       
  62 H62            5.9872    -3.3785    -2.5128 H       
  63 H63            5.1512    -1.8336    -2.8157 H       
  64 H64            8.4802    -0.7332     0.4638 H       
  65 H65            8.7021    -2.5784     2.0859 H       
  66 H66            9.6514    -3.5181     0.9083 H       
  67 H67           10.4261    -0.8033     2.0698 H       
  68 H68           11.1413    -2.3702     2.5179 H       
  69 H69           10.7880     0.0934    -0.1398 H       
  70 H70           11.7691    -0.8150    -1.3145 H       
  71 H71           10.0317    -2.5757    -1.4139 H       
  72 H72            9.3441    -0.9878    -1.8338 H       
  73 H73           13.3389    -1.7921     1.7795 H       
  74 H74           13.5760    -1.0754     0.1676 H       
  75 H75           12.7464    -0.1483     1.4405 H       
  76 H76            1.4505    -2.0492     2.9185 H       
  77 H77           -2.2843    -4.6993     1.0891 H       
  78 H78           -2.5834    -6.8196    -1.0391 H       
  79 H79           -1.6953    -9.0744    -1.4682 H       
  80 H80            1.6007    -7.3844    -3.5811 H       
  81 H81            2.7676    -5.6611    -3.3397 H       
  82 H82            1.8368    -5.7390    -4.8549 H       
  83 H83            2.4853    -4.1814    -4.2879 H       
  84 H84           -3.5462    -1.4921    -0.8555 H       
  85 H85           -3.5288    -1.5149     0.9242 H       
  86 H86           -4.4904    -0.2920     0.0592 H       
  87 H87           -2.3902     0.6878     0.9414 H       
  88 H88           -2.4076     0.7106    -0.8383 H       
@<TRIPOS>BOND
   1    1   31 1
   2    2    3 ar
   3    2    7 ar
   4    2   50 1
   5    3    4 ar
   6    3   44 1
   7    4    5 ar
   8    4    8 1
   9    5    6 ar
  10    5   51 1
  11    6    7 ar
  12    6   52 1
  13    7   53 1
  14    8    9 1
  15    8   10 1
  16    8   28 1
  17    9   26 2
  18    9   27 am
  19   10   11 am
  20   10   54 1
  21   11   12 am
  22   11   13 2
  23   12   14 1
  24   12   18 1
  25   14   15 1
  26   14   55 1
  27   14   56 1
  28   15   16 1
  29   15   57 1
  30   15   58 1
  31   16   17 1
  32   16   19 1
  33   16   59 1
  34   17   18 1
  35   17   60 1
  36   17   61 1
  37   18   62 1
  38   18   63 1
  39   19   20 1
  40   19   24 1
  41   19   64 1
  42   20   21 1
  43   20   65 1
  44   20   66 1
  45   21   22 1
  46   21   67 1
  47   21   68 1
  48   22   23 1
  49   22   25 1
  50   23   24 1
  51   23   69 1
  52   23   70 1
  53   24   71 1
  54   24   72 1
  55   25   73 1
  56   25   74 1
  57   25   75 1
  58   27   47 am
  59   27   29 1
  60   28   29 ar
  61   28   30 ar
  62   29   33 ar
  63   30   31 ar
  64   30   76 1
  65   31   32 ar
  66   32   33 ar
  67   32   34 1
  68   33   77 1
  69   35   36 ar
  70   35   37 ar
  71   35   47 1
  72   36   42 1
  73   36   40 ar
  74   37   38 ar
  75   37   78 1
  76   38   39 ar
  77   38   79 1
  78   39   40 ar
  79   39   41 1
  80   40   80 1
  81   42   43 1
  82   43   81 1
  83   43   82 1
  84   43   83 1
  85   44   46 1
  86   45   46 1
  87   45   84 1
  88   45   85 1
  89   45   86 1
  90   46   87 1
  91   46   88 1
  92   47   48 2
  93   47   49 2

#	End of record

