#	Name: ASD01410047
#	Creating user name:	WinNT
#	Creation time:	15. 06. 2019 19:16

#	Modifying user name:	WinNT
#	Modification time:	15. 06. 2019 19:16

#	Program:	/corina/corina34_cracker 3.40 0067  02.08.2006

@<TRIPOS>MOLECULE
ASD01410047
  42   43    0    0    0
SMALL
NO_CHARGES


@<TRIPOS>ATOM
   1 C1             0.3780     1.1106    -0.0846 C.ar    
   2 C2             0.1378    -0.2430    -0.0368 C.ar    
   3 C3            -1.1798    -0.7179    -0.0008 C.ar    
   4 C4            -2.2480     0.1978    -0.0140 C.ar    
   5 C5            -1.9836     1.5604    -0.0624 C.ar    
   6 C6            -0.6787     2.0115    -0.0921 C.ar    
   7 N7            -3.5576    -0.2577     0.0208 N.pl3   
   8 C8            -4.6631     0.6980     0.1245 C.3     
   9 C9            -5.9722    -0.0482     0.1431 C.2     
  10 N10           -7.1333     0.6301     0.2340 N.am    
  11 C11           -8.3455    -0.0478     0.1320 C.ar    
  12 C12           -8.4163    -1.2506    -0.5572 C.ar    
  13 C13           -9.6191    -1.9210    -0.6572 C.ar    
  14 C14          -10.7626    -1.4009    -0.0730 C.ar    
  15 C15          -10.7118    -0.2080     0.6152 C.ar    
  16 C16           -9.5007     0.4790     0.7304 C.ar    
  17 C17           -9.4391     1.7550     1.4654 C.2     
  18 O18          -10.5285     2.2129     2.1129 O.3     
  19 O19           -8.4058     2.3940     1.4876 O.2     
  20 O20           -5.9809    -1.2591     0.0763 O.2     
  21 C21           -1.4437    -2.1589     0.0497 C.2     
  22 C22            1.7961     1.6189    -0.1227 C.3     
  23 C23           -0.3034    -3.1380    -0.0605 C.3     
  24 O24           -2.5801    -2.5633     0.1803 O.2     
  25 Cl25          -0.3573     3.7164    -0.1521 Cl      
  26 H26            0.9638    -0.9387    -0.0274 H       
  27 H27           -2.7993     2.2681    -0.0728 H       
  28 H28           -3.7415    -1.2091    -0.0236 H       
  29 H29           -4.5602     1.2742     1.0441 H       
  30 H30           -4.6416     1.3727    -0.7313 H       
  31 H31           -7.1246     1.5904     0.3705 H       
  32 H32           -7.5295    -1.6624    -1.0160 H       
  33 H33           -9.6689    -2.8565    -1.1945 H       
  34 H34          -11.6987    -1.9329    -0.1577 H       
  35 H35          -11.6063     0.1932     1.0685 H       
  36 H36          -10.4397     3.0544     2.5810 H       
  37 H37            2.1225     1.7080    -1.1589 H       
  38 H38            1.8451     2.5956     0.3589 H       
  39 H39            2.4466     0.9209     0.4043 H       
  40 H40            0.0834    -3.3588     0.9343 H       
  41 H41           -0.6583    -4.0582    -0.5248 H       
  42 H42            0.4893    -2.7054    -0.6708 H       
@<TRIPOS>BOND
   1    1    2 ar
   2    1   22 1
   3    1    6 ar
   4    2    3 ar
   5    2   26 1
   6    3    4 ar
   7    3   21 1
   8    4    5 ar
   9    4    7 1
  10    5    6 ar
  11    5   27 1
  12    6   25 1
  13    7    8 1
  14    7   28 1
  15    8    9 1
  16    8   29 1
  17    8   30 1
  18    9   10 am
  19    9   20 2
  20   10   11 1
  21   10   31 1
  22   11   12 ar
  23   11   16 ar
  24   12   13 ar
  25   12   32 1
  26   13   14 ar
  27   13   33 1
  28   14   15 ar
  29   14   34 1
  30   15   16 ar
  31   15   35 1
  32   16   17 1
  33   17   18 1
  34   17   19 2
  35   18   36 1
  36   21   23 1
  37   21   24 2
  38   22   37 1
  39   22   38 1
  40   22   39 1
  41   23   40 1
  42   23   41 1
  43   23   42 1

#	End of record

