#	Name: ASD01001065
#	Creating user name:	WinNT
#	Creation time:	15. 06. 2019 18:55

#	Modifying user name:	WinNT
#	Modification time:	15. 06. 2019 18:55

#	Program:	/corina/corina34_cracker 3.40 0067  02.08.2006

@<TRIPOS>MOLECULE
ASD01001065
  48   50    0    0    0
SMALL
NO_CHARGES


@<TRIPOS>ATOM
   1 C1             0.0983     0.9076     1.6220 C.ar    
   2 C2             0.0717    -0.3188     0.9848 C.ar    
   3 C3             1.2842     1.6116     1.7170 C.ar    
   4 C4             1.2309    -0.8412     0.4425 C.ar    
   5 C5             2.4435     1.0892     1.1747 C.ar    
   6 C6             2.4167    -0.1370     0.5370 C.ar    
   7 C7             3.6804    -0.7064    -0.0547 C.3     
   8 C8             3.6118    -2.2116    -0.0321 C.ar    
   9 C9             3.8273    -0.2315    -1.4773 C.ar    
  10 S10            5.1071    -0.1514     0.9185 S.3     
  11 C11            3.9052    -2.9341    -1.1736 C.ar    
  12 C12            3.2611    -2.8702     1.1316 C.ar    
  13 C13            2.9020    -0.6108    -2.4316 C.ar    
  14 C14            4.8843     0.5881    -1.8267 C.ar    
  15 C15            6.4848    -1.0779     0.1876 C.3     
  16 C16            3.8423    -4.3148    -1.1529 C.ar    
  17 C17            3.1982    -4.2509     1.1523 C.ar    
  18 C18            3.0368    -0.1752    -3.7366 C.ar    
  19 C19            5.0191     1.0237    -3.1317 C.ar    
  20 C20            7.7615    -0.8082     0.9865 C.3     
  21 C21            3.4864    -4.9732     0.0094 C.ar    
  22 C22            4.0967     0.6401    -4.0872 C.ar    
  23 C23            8.9235    -1.5896     0.3701 C.3     
  24 N24            8.0655     0.6286     0.9536 N.3     
  25 O25           10.0884    -1.4310     1.1824 O.3     
  26 H26            8.2033     0.9474     0.0062 H       
  27 H27            7.3425     1.1618     1.4130 H       
  28 H28           10.8660    -1.9005     0.8509 H       
  29 H29           -0.8083     1.3179     2.0418 H       
  30 H30           -0.8547    -0.8690     0.9110 H       
  31 H31            1.3050     2.5699     2.2145 H       
  32 H32            1.2103    -1.7998    -0.0547 H       
  33 H33            3.3698     1.6395     1.2482 H       
  34 H34            4.1832    -2.4197    -2.0816 H       
  35 H35            3.0366    -2.3060     2.0247 H       
  36 H36            2.0739    -1.2477    -2.1578 H       
  37 H37            5.6046     0.8883    -1.0801 H       
  38 H38            6.2593    -2.1440     0.2120 H       
  39 H39            6.6287    -0.7605    -0.8452 H       
  40 H40            4.0708    -4.8792    -2.0449 H       
  41 H41            2.9246    -4.7655     2.0616 H       
  42 H42            2.3142    -0.4721    -4.4824 H       
  43 H43            5.8446     1.6643    -3.4046 H       
  44 H44            7.6176    -1.1256     2.0193 H       
  45 H45            3.4373    -6.0519     0.0255 H       
  46 H46            4.2020     0.9804    -5.1067 H       
  47 H47            8.6613    -2.6461     0.3132 H       
  48 H48            9.1250    -1.2109    -0.6320 H       
@<TRIPOS>BOND
   1    1    2 ar
   2    1    3 ar
   3    1   29 1
   4    2    4 ar
   5    2   30 1
   6    3    5 ar
   7    3   31 1
   8    4    6 ar
   9    4   32 1
  10    5    6 ar
  11    5   33 1
  12    6    7 1
  13    7    8 1
  14    7    9 1
  15    7   10 1
  16    8   11 ar
  17    8   12 ar
  18    9   13 ar
  19    9   14 ar
  20   10   15 1
  21   11   16 ar
  22   11   34 1
  23   12   17 ar
  24   12   35 1
  25   13   18 ar
  26   13   36 1
  27   14   19 ar
  28   14   37 1
  29   15   20 1
  30   15   38 1
  31   15   39 1
  32   16   21 ar
  33   16   40 1
  34   17   21 ar
  35   17   41 1
  36   18   22 ar
  37   18   42 1
  38   19   22 ar
  39   19   43 1
  40   20   23 1
  41   20   24 1
  42   20   44 1
  43   21   45 1
  44   22   46 1
  45   23   25 1
  46   23   47 1
  47   23   48 1
  48   24   26 1
  49   24   27 1
  50   25   28 1

#	End of record

