#	Name: ASD07300141
#	Creating user name:	WinNT
#	Creation time:	15. 06. 2019 21:09

#	Modifying user name:	WinNT
#	Modification time:	15. 06. 2019 21:09

#	Program:	/corina/corina34_cracker 3.40 0067  02.08.2006

@<TRIPOS>MOLECULE
ASD07300141
  57   61    0    0    0
SMALL
NO_CHARGES


@<TRIPOS>ATOM
   1 C1            -0.0886     1.3534     0.1880 C.ar    
   2 C2            -0.0838    -0.0407     0.2906 C.ar    
   3 C3             1.1224    -0.7232     0.2269 C.ar    
   4 C4             2.2854     0.0143     0.0624 C.ar    
   5 C5             2.2067     1.3914    -0.0319 C.ar    
   6 N6             1.0465     2.0150     0.0318 N.ar    
   7 C7            -2.1830     0.6603     0.4462 C.2     
   8 N8            -1.4157     1.7550     0.2895 N.am    
   9 N9            -1.4076    -0.4409     0.4458 N.am    
  10 O10           -3.3939     0.6645     0.5656 O.2     
  11 O11           -3.2363     6.9736     0.0846 O.3     
  12 C12           -3.6891     4.6483     0.3008 C.ar    
  13 C13           -3.2351     3.3453     0.3517 C.ar    
  14 C14           -1.8775     3.0786     0.2373 C.ar    
  15 C15           -0.9769     4.1221     0.0716 C.ar    
  16 C16           -1.4319     5.4248     0.0207 C.ar    
  17 C17           -2.7888     5.6909     0.1352 C.ar    
  18 C18           -4.5756     7.1792     0.0398 C.2     
  19 C19           -5.2185     8.4139     0.1212 C.2     
  20 C20           -1.8762    -1.8213     0.5915 C.3     
  21 C21           -2.6013    -1.9751     1.9299 C.3     
  22 C22           -2.8372    -2.1569    -0.5507 C.3     
  23 N23           -5.5045     6.2412    -0.0950 N.2     
  24 C24           -6.7147     6.7987    -0.1003 C.2     
  25 N25           -6.5774     8.1508     0.0325 N.pl3   
  26 C26           -8.0005     6.2401    -0.2156 C.2     
  27 C27           -9.0903     7.0584    -0.1896 C.2     
  28 C28           -8.9144     8.4416    -0.0487 C.2     
  29 C29           -7.6692     8.9601     0.0562 C.2     
  30 C30           -4.6091     9.6768     0.2649 C.2     
  31 O31           -5.3704    10.7903     0.3302 O.3     
  32 O32           -3.3962     9.7638     0.3302 O.2     
  33 C33           -4.6862    12.0364     0.4760 C.3     
  34 C34           -5.7065    13.1751     0.5313 C.3     
  35 H35            1.1548    -1.8000     0.3038 H       
  36 H36            3.2431    -0.4822     0.0089 H       
  37 H37            3.1117     1.9668    -0.1596 H       
  38 H38           -4.7457     4.8556     0.3853 H       
  39 H39           -3.9360     2.5338     0.4810 H       
  40 H40            0.0793     3.9151    -0.0171 H       
  41 H41           -0.7314     6.2367    -0.1078 H       
  42 H42           -1.0236    -2.4996     0.5601 H       
  43 H43           -3.4539    -1.2968     1.9613 H       
  44 H44           -2.9499    -3.0022     2.0384 H       
  45 H45           -1.9166    -1.7360     2.7437 H       
  46 H46           -3.6898    -1.4786    -0.5193 H       
  47 H47           -2.3206    -2.0473    -1.5042 H       
  48 H48           -3.1858    -3.1839    -0.4423 H       
  49 H49           -8.1231     5.1726    -0.3241 H       
  50 H50          -10.0834     6.6432    -0.2775 H       
  51 H51           -9.7740     9.0950    -0.0274 H       
  52 H52           -7.5417    10.0270     0.1649 H       
  53 H53           -4.1036    12.0254     1.3972 H       
  54 H54           -4.0199    12.1865    -0.3735 H       
  55 H55           -5.1846    14.1256     0.6424 H       
  56 H56           -6.2891    13.1861    -0.3899 H       
  57 H57           -6.3728    13.0250     1.3807 H       
@<TRIPOS>BOND
   1    1    2 ar
   2    1    6 ar
   3    1    8 1
   4    2    3 ar
   5    2    9 1
   6    3    4 ar
   7    3   35 1
   8    4    5 ar
   9    4   36 1
  10    5    6 ar
  11    5   37 1
  12    7    8 am
  13    7    9 am
  14    7   10 2
  15    8   14 1
  16    9   20 1
  17   11   17 1
  18   11   18 1
  19   12   13 ar
  20   12   17 ar
  21   12   38 1
  22   13   14 ar
  23   13   39 1
  24   14   15 ar
  25   15   16 ar
  26   15   40 1
  27   16   17 ar
  28   16   41 1
  29   18   19 2
  30   18   23 1
  31   19   30 1
  32   19   25 1
  33   20   21 1
  34   20   22 1
  35   20   42 1
  36   21   43 1
  37   21   44 1
  38   21   45 1
  39   22   46 1
  40   22   47 1
  41   22   48 1
  42   23   24 2
  43   24   25 1
  44   24   26 1
  45   25   29 1
  46   26   27 2
  47   26   49 1
  48   27   28 1
  49   27   50 1
  50   28   29 2
  51   28   51 1
  52   29   52 1
  53   30   31 1
  54   30   32 2
  55   31   33 1
  56   33   34 1
  57   33   53 1
  58   33   54 1
  59   34   55 1
  60   34   56 1
  61   34   57 1

#	End of record

