#	Name: ASD02198664
#	Creating user name:	WinNT
#	Creation time:	15. 06. 2019 20:19

#	Modifying user name:	WinNT
#	Modification time:	15. 06. 2019 20:19

#	Program:	/corina/corina34_cracker 3.40 0067  02.08.2006

@<TRIPOS>MOLECULE
ASD02198664
  45   46    0    0    0
SMALL
NO_CHARGES


@<TRIPOS>ATOM
   1 C1             1.0557     1.4526     1.6961 C.3     
   2 N2            -0.6921     3.5976    -0.2866 N.pl3   
   3 N3             0.4647     4.1513    -0.1476 N.2     
   4 C4             1.5300     3.4057     0.0933 C.2     
   5 C5             1.3810     1.9696     0.3185 C.2     
   6 C6            -1.8320     4.3897    -0.4327 C.ar    
   7 C7            -4.2091     4.5790    -0.7273 C.ar    
   8 C8            -4.0946     5.9651    -0.7226 C.ar    
   9 C9            -2.8471     6.5592    -0.5780 C.ar    
  10 C10           -1.7203     5.7753    -0.4341 C.ar    
  11 C11            2.8642     4.0217     0.1347 C.2     
  12 O12            1.5192     1.1930    -0.6042 O.2     
  13 C13           -3.0807     3.7923    -0.5827 C.ar    
  14 O14            0.8460     0.0403     1.6377 O.3     
  15 C15            0.5296    -0.5530     2.8986 C.3     
  16 O16            3.0017     5.3466    -0.0730 O.3     
  17 O17            3.8435     3.3363     0.3562 O.2     
  18 F18           -3.1899     2.4458    -0.5874 F       
  19 N19           -5.2358     6.7613    -0.8638 N.3     
  20 C20           -5.4182     7.6330     0.3059 C.3     
  21 C21           -6.6410     8.5270     0.0836 C.3     
  22 O22           -7.7861     7.7069    -0.1642 O.3     
  23 C23           -7.6432     6.8455    -1.2969 C.3     
  24 C24           -6.4305     5.9345    -1.0886 C.3     
  25 C25            4.3485     5.8863    -0.0175 C.3     
  26 F26           -5.4224     4.0014    -0.8673 F       
  27 H27            1.8842     1.6693     2.3705 H       
  28 H28            0.1519     1.9393     2.0628 H       
  29 H29           -0.7697     2.6307    -0.2896 H       
  30 H30           -2.7593     7.6356    -0.5749 H       
  31 H31           -0.7512     6.2387    -0.3222 H       
  32 H32            0.3854    -1.6256     2.7695 H       
  33 H33            1.3471    -0.3779     3.5979 H       
  34 H34           -0.3851    -0.1079     3.2902 H       
  35 H35           -5.5711     7.0216     1.1952 H       
  36 H36           -4.5324     8.2542     0.4384 H       
  37 H37           -6.8138     9.1347     0.9719 H       
  38 H38           -6.4660     9.1765    -0.7741 H       
  39 H39           -8.5408     6.2371    -1.4071 H       
  40 H40           -7.4973     7.4461    -2.1947 H       
  41 H41           -6.2837     5.3159    -1.9740 H       
  42 H42           -6.5996     5.2959    -0.2216 H       
  43 H43            4.3174     6.9603    -0.2013 H       
  44 H44            4.7748     5.6986     0.9679 H       
  45 H45            4.9643     5.4053    -0.7774 H       
@<TRIPOS>BOND
   1    1   14 1
   2    1    5 1
   3    1   27 1
   4    1   28 1
   5    2    3 1
   6    2    6 1
   7    2   29 1
   8    3    4 2
   9    4    5 1
  10    4   11 1
  11    5   12 2
  12    6   13 ar
  13    6   10 ar
  14    7    8 ar
  15    7   26 1
  16    7   13 ar
  17    8    9 ar
  18    8   19 1
  19    9   10 ar
  20    9   30 1
  21   10   31 1
  22   11   16 1
  23   11   17 2
  24   13   18 1
  25   14   15 1
  26   15   32 1
  27   15   33 1
  28   15   34 1
  29   16   25 1
  30   19   20 1
  31   19   24 1
  32   20   21 1
  33   20   35 1
  34   20   36 1
  35   21   22 1
  36   21   37 1
  37   21   38 1
  38   22   23 1
  39   23   24 1
  40   23   39 1
  41   23   40 1
  42   24   41 1
  43   24   42 1
  44   25   43 1
  45   25   44 1
  46   25   45 1

#	End of record

