#	Name: ASD01912403
#	Creating user name:	WinNT
#	Creation time:	15. 06. 2019 19:59

#	Modifying user name:	WinNT
#	Modification time:	15. 06. 2019 19:59

#	Program:	/corina/corina34_cracker 3.40 0067  02.08.2006

@<TRIPOS>MOLECULE
ASD01912403
  48   50    0    0    0
SMALL
NO_CHARGES


@<TRIPOS>ATOM
   1 C1            -0.0027     1.4095    -0.0607 C.ar    
   2 C2             0.2513     0.5645     1.0151 C.ar    
   3 C3             1.4493    -0.1250     1.0605 C.ar    
   4 C4             2.3569     0.0543     0.0247 C.ar    
   5 C5             2.0396     0.9085    -1.0119 C.ar    
   6 N6             0.8885     1.5537    -1.0291 N.ar    
   7 N7            -0.6625     0.4193     2.0050 N.pl3   
   8 O8            -0.4772    -0.3967     2.8901 O.2     
   9 O9            -1.6693     1.1049     2.0098 O.2     
  10 N10           -1.2051     2.1042    -0.1220 N.3     
  11 C11           -0.9814     3.5526    -0.0301 C.3     
  12 C12           -2.3288     4.2744     0.0457 C.3     
  13 C13           -3.1501     3.9442    -1.2037 C.3     
  14 C14           -3.3275     2.4265    -1.3019 C.3     
  15 C15           -1.9512     1.7582    -1.3386 C.3     
  16 C16           -4.5222     4.6140    -1.1053 C.3     
  17 C17           -5.2654     4.3962    -2.3571 C.1     
  18 C18           -5.8582     4.2225    -3.3555 C.1     
  19 C19           -6.5812     4.0106    -4.5732 C.ar    
  20 C20           -7.8669     4.5341    -4.7151 C.ar    
  21 C21           -8.5524     4.3208    -5.8978 C.ar    
  22 C22           -7.9312     3.5906    -6.9017 C.ar    
  23 C23           -6.6550     3.1006    -6.6943 C.ar    
  24 N24           -6.0209     3.3220    -5.5609 N.ar    
  25 C25           -5.9778     2.3072    -7.7819 C.3     
  26 C26            3.0204     1.1071    -2.1388 C.3     
  27 H27            1.6742    -0.7876     1.8832 H       
  28 H28            3.3015    -0.4692     0.0304 H       
  29 H29           -0.3999     3.7742     0.8647 H       
  30 H30           -0.4363     3.8925    -0.9107 H       
  31 H31           -2.8685     3.9452     0.9335 H       
  32 H32           -2.1627     5.3504     0.0981 H       
  33 H33           -2.6288     4.3080    -2.0891 H       
  34 H34           -3.8830     2.0682    -0.4352 H       
  35 H35           -3.8750     2.1822    -2.2122 H       
  36 H36           -1.4016     2.1065    -2.2131 H       
  37 H37           -2.0740     0.6766    -1.3941 H       
  38 H38           -5.0782     4.1827    -0.2729 H       
  39 H39           -4.3933     5.6838    -0.9407 H       
  40 H40           -8.3204     5.0975    -3.9131 H       
  41 H41           -9.5489     4.7133    -6.0366 H       
  42 H42           -8.4402     3.4067    -7.8363 H       
  43 H43           -5.4191     2.9823    -8.4300 H       
  44 H44           -5.2947     1.5857    -7.3336 H       
  45 H45           -6.7298     1.7796    -8.3686 H       
  46 H46            2.8270     0.3743    -2.9222 H       
  47 H47            2.9079     2.1121    -2.5455 H       
  48 H48            4.0357     0.9785    -1.7636 H       
@<TRIPOS>BOND
   1    1    2 ar
   2    1    6 ar
   3    1   10 1
   4    2    3 ar
   5    2    7 1
   6    3    4 ar
   7    3   27 1
   8    4    5 ar
   9    4   28 1
  10    5    6 ar
  11    5   26 1
  12    7    8 2
  13    7    9 2
  14   10   11 1
  15   10   15 1
  16   11   12 1
  17   11   29 1
  18   11   30 1
  19   12   13 1
  20   12   31 1
  21   12   32 1
  22   13   14 1
  23   13   16 1
  24   13   33 1
  25   14   15 1
  26   14   34 1
  27   14   35 1
  28   15   36 1
  29   15   37 1
  30   16   17 1
  31   16   38 1
  32   16   39 1
  33   17   18 3
  34   18   19 1
  35   19   20 ar
  36   19   24 ar
  37   20   21 ar
  38   20   40 1
  39   21   22 ar
  40   21   41 1
  41   22   23 ar
  42   22   42 1
  43   23   24 ar
  44   23   25 1
  45   25   43 1
  46   25   44 1
  47   25   45 1
  48   26   46 1
  49   26   47 1
  50   26   48 1

#	End of record

