#	Name: ASD01209205
#	Creating user name:	WinNT
#	Creation time:	15. 06. 2019 19:11

#	Modifying user name:	WinNT
#	Modification time:	15. 06. 2019 19:11

#	Program:	/corina/corina34_cracker 3.40 0067  02.08.2006

@<TRIPOS>MOLECULE
ASD01209205
  74   77    0    0    0
SMALL
NO_CHARGES


@<TRIPOS>ATOM
   1 O1            -3.3415     5.8678     1.4249 O.3     
   2 O2            -0.9316     5.3329     2.3295 O.3     
   3 C3             8.2121     8.7227     2.4806 C.ar    
   4 C4             8.1019     8.6138     3.8590 C.ar    
   5 C5             6.8570     8.4442     4.4484 C.ar    
   6 C6             5.7187     8.3831     3.6616 C.ar    
   7 C7             5.8251     8.4923     2.2745 C.ar    
   8 C8             7.0783     8.6680     1.6867 C.ar    
   9 O9             6.7546     8.3380     5.7993 O.3     
  10 C10            4.6131     8.4278     1.4307 C.2     
  11 N11            3.4030     8.2632     2.0009 N.am    
  12 O12            4.7078     8.5231     0.2226 O.2     
  13 C13            2.2642     8.2025     1.2081 C.2     
  14 P14           -1.7651     6.0551     1.1566 P.3     
  15 O15           -1.4109     5.4482    -0.1460 O.2     
  16 C16           -1.3603     7.8323     1.1290 C.3     
  17 N17            1.0567     8.0470     1.6536 N.2     
  18 S18            2.2500     8.3294    -0.4968 S.3     
  19 C19            0.4979     8.1456    -0.5064 C.2     
  20 C20            0.0889     8.0118     0.7568 C.2     
  21 C21           -3.9893     4.5943     1.4005 C.3     
  22 C22           -5.4799     4.7745     1.6945 C.3     
  23 C23           -0.9504     3.9198     2.5412 C.3     
  24 C24           -0.0543     3.5704     3.7311 C.3     
  25 O25            9.4337     8.8891     1.9086 O.3     
  26 C26           10.5595     8.9429     2.7871 C.3     
  27 C27           11.8374     9.1326     1.9673 C.3     
  28 C28            6.8022     7.0953     6.3469 C.ar    
  29 C29            6.5938     6.9273     7.7084 C.ar    
  30 C30            6.6423     5.6629     8.2625 C.ar    
  31 C31            6.8983     4.5651     7.4617 C.ar    
  32 C32            7.1065     4.7298     6.1047 C.ar    
  33 C33            7.0538     5.9914     5.5447 C.ar    
  34 S34            6.9601     2.9537     8.1718 S.o2    
  35 O35            7.8052     2.2179     7.2980 O.2     
  36 O36            7.3265     3.1813     9.5258 O.2     
  37 C37            5.2537     2.3473     8.0673 C.3     
  38 C38           13.1183     9.2042     2.8198 C.3     
  39 O39           13.6972     8.3432     1.8187 O.3     
  40 C40           12.4180     7.8202     1.4078 C.3     
  41 C41           11.7219    10.2518     0.9305 C.3     
  42 H42            8.9876     8.6606     4.4754 H       
  43 H43            4.7503     8.2504     4.1209 H       
  44 H44            7.1650     8.7533     0.6135 H       
  45 H45            3.3275     8.1871     2.9650 H       
  46 H46           -1.9890     8.3368     0.3953 H       
  47 H47           -1.5378     8.2607     2.1155 H       
  48 H48           -0.1350     8.1449    -1.3815 H       
  49 H49           -3.8650     4.1422     0.4165 H       
  50 H50           -3.5456     3.9464     2.1566 H       
  51 H51           -5.9740     3.8031     1.6759 H       
  52 H52           -5.6041     5.2266     2.6785 H       
  53 H53           -5.9236     5.4224     0.9384 H       
  54 H54           -1.9708     3.5969     2.7477 H       
  55 H55           -0.5828     3.4138     1.6485 H       
  56 H56            0.9661     3.8933     3.5246 H       
  57 H57           -0.4219     4.0764     4.6237 H       
  58 H58           -0.0687     2.4925     3.8925 H       
  59 H59           10.4427     9.7789     3.4766 H       
  60 H60           10.6247     8.0127     3.3515 H       
  61 H61            6.3941     7.7844     8.3344 H       
  62 H62            6.4804     5.5316     9.3222 H       
  63 H63            7.3066     3.8708     5.4814 H       
  64 H64            7.2165     6.1195     4.4847 H       
  65 H65            4.9410     2.3203     7.0235 H       
  66 H66            5.1982     1.3439     8.4893 H       
  67 H67            4.5965     3.0134     8.6264 H       
  68 H68           13.5663    10.1971     2.8601 H       
  69 H69           13.0221     8.7379     3.8003 H       
  70 H70           12.1080     6.9312     1.9572 H       
  71 H71           12.3106     7.7153     0.3282 H       
  72 H72           11.6813    11.2152     1.4388 H       
  73 H73           12.5884    10.2258     0.2698 H       
  74 H74           10.8136    10.1117     0.3443 H       
@<TRIPOS>BOND
   1    1   21 1
   2    1   14 1
   3    2   23 1
   4    2   14 1
   5    3    4 ar
   6    3   25 1
   7    3    8 ar
   8    4    5 ar
   9    4   42 1
  10    5    6 ar
  11    5    9 1
  12    6    7 ar
  13    6   43 1
  14    7    8 ar
  15    7   10 1
  16    8   44 1
  17    9   28 1
  18   10   11 am
  19   10   12 2
  20   11   13 1
  21   11   45 1
  22   13   17 2
  23   13   18 1
  24   14   15 2
  25   14   16 1
  26   16   20 1
  27   16   46 1
  28   16   47 1
  29   17   20 1
  30   18   19 1
  31   19   20 2
  32   19   48 1
  33   21   22 1
  34   21   49 1
  35   21   50 1
  36   22   51 1
  37   22   52 1
  38   22   53 1
  39   23   24 1
  40   23   54 1
  41   23   55 1
  42   24   56 1
  43   24   57 1
  44   24   58 1
  45   25   26 1
  46   26   27 1
  47   26   59 1
  48   26   60 1
  49   27   38 1
  50   27   41 1
  51   27   40 1
  52   28   29 ar
  53   28   33 ar
  54   29   30 ar
  55   29   61 1
  56   30   31 ar
  57   30   62 1
  58   31   32 ar
  59   31   34 1
  60   32   33 ar
  61   32   63 1
  62   33   64 1
  63   34   35 2
  64   34   36 2
  65   34   37 1
  66   37   65 1
  67   37   66 1
  68   37   67 1
  69   38   39 1
  70   38   68 1
  71   38   69 1
  72   39   40 1
  73   40   70 1
  74   40   71 1
  75   41   72 1
  76   41   73 1
  77   41   74 1

#	End of record

