#	Name: ASD01884592
#	Creating user name:	WinNT
#	Creation time:	15. 06. 2019 19:48

#	Modifying user name:	WinNT
#	Modification time:	15. 06. 2019 19:48

#	Program:	/corina/corina34_cracker 3.40 0067  02.08.2006

@<TRIPOS>MOLECULE
ASD01884592
  43   45    0    0    0
SMALL
NO_CHARGES


@<TRIPOS>ATOM
   1 C1             0.0633     1.0717    -0.1507 C.2     
   2 C2             0.1825    -0.2836    -0.0546 C.2     
   3 C3             1.4588    -0.8535     0.0536 C.2     
   4 C4             2.5548    -0.0593     0.0617 C.2     
   5 N5             2.4342     1.2896    -0.0337 N.am    
   6 C6             1.2221     1.8667    -0.1392 C.2     
   7 O7             1.1299     3.0808    -0.2245 O.2     
   8 C8             3.6363     2.1268    -0.0216 C.3     
   9 C9             1.6103    -2.3489     0.1613 C.3     
  10 C10            1.4602    -2.7666     1.6014 C.ar    
  11 C11            0.2114    -3.0891     2.0999 C.ar    
  12 C12            0.0711    -3.4723     3.4197 C.ar    
  13 C13            1.1845    -3.5334     4.2451 C.ar    
  14 C14            2.4363    -3.2094     3.7426 C.ar    
  15 C15            2.5721    -2.8322     2.4206 C.ar    
  16 O16            1.0490    -3.9097     5.5440 O.3     
  17 C17            2.2383    -3.9501     6.3351 C.3     
  18 O18            3.9093     2.5874    -1.3465 O.3     
  19 C19            4.9967     3.3862    -1.5103 C.ar    
  20 C20            5.3873     3.7753    -2.7833 C.ar    
  21 C21            6.4925     4.5876    -2.9477 C.ar    
  22 C22            7.2098     5.0131    -1.8436 C.ar    
  23 C23            6.8218     4.6261    -0.5731 C.ar    
  24 C24            5.7141     3.8182    -0.4043 C.ar    
  25 Cl25           8.5987     6.0334    -2.0528 Cl      
  26 H26           -0.9112     1.5289    -0.2392 H       
  27 H27           -0.6967    -0.9109    -0.0613 H       
  28 H28            3.5357    -0.5034     0.1452 H       
  29 H29            3.4768     2.9822     0.6348 H       
  30 H30            4.4821     1.5429     0.3415 H       
  31 H31            0.8430    -2.8361    -0.4402 H       
  32 H32            2.5960    -2.6413    -0.2009 H       
  33 H33           -0.6550    -3.0410     1.4570 H       
  34 H34           -0.9045    -3.7237     3.8087 H       
  35 H35            3.3045    -3.2562     4.3832 H       
  36 H36            3.5464    -2.5799     2.0289 H       
  37 H37            1.9899    -4.2649     7.3487 H       
  38 H38            2.9421    -4.6578     5.8971 H       
  39 H39            2.6900    -2.9585     6.3631 H       
  40 H40            4.8279     3.4430    -3.6453 H       
  41 H41            6.7971     4.8904    -3.9386 H       
  42 H42            7.3830     4.9593     0.2874 H       
  43 H43            5.4115     3.5164     0.5875 H       
@<TRIPOS>BOND
   1    1    2 2
   2    1    6 1
   3    1   26 1
   4    2    3 1
   5    2   27 1
   6    3    4 2
   7    3    9 1
   8    4    5 1
   9    4   28 1
  10    5    6 am
  11    5    8 1
  12    6    7 2
  13    8   18 1
  14    8   29 1
  15    8   30 1
  16    9   10 1
  17    9   31 1
  18    9   32 1
  19   10   11 ar
  20   10   15 ar
  21   11   12 ar
  22   11   33 1
  23   12   13 ar
  24   12   34 1
  25   13   14 ar
  26   13   16 1
  27   14   15 ar
  28   14   35 1
  29   15   36 1
  30   16   17 1
  31   17   37 1
  32   17   38 1
  33   17   39 1
  34   18   19 1
  35   19   20 ar
  36   19   24 ar
  37   20   21 ar
  38   20   40 1
  39   21   22 ar
  40   21   41 1
  41   22   23 ar
  42   22   25 1
  43   23   24 ar
  44   23   42 1
  45   24   43 1

#	End of record

