#	Name: ASD06610063
#	Creating user name:	WinNT
#	Creation time:	15. 06. 2019 21:07

#	Modifying user name:	WinNT
#	Modification time:	15. 06. 2019 21:07

#	Program:	/corina/corina34_cracker 3.40 0067  02.08.2006

@<TRIPOS>MOLECULE
ASD06610063
 266  266    0    0    0
SMALL
NO_CHARGES


@<TRIPOS>ATOM
   1 C1            -3.9570    -3.8381     2.5771 C.2     
   2 O2            -4.4061    -4.6266     3.3818 O.2     
   3 N3            -1.9519    -5.2027     2.6582 N.am    
   4 C4            -2.5563    -4.0150     2.0498 C.3     
   5 C5            -2.6014    -4.1872     0.5302 C.3     
   6 C6            -6.9382    -2.1490     1.4412 C.2     
   7 O7            -6.4080    -1.8520     0.3916 O.2     
   8 N8            -4.7125    -2.8069     2.1502 N.am    
   9 C9            -6.1105    -2.6982     2.5745 C.3     
  10 C10           -6.2066    -1.7586     3.7782 C.3     
  11 C11           -5.5308    -0.4279     3.4416 C.3     
  12 C12           -6.3421     0.2986     2.3669 C.3     
  13 C13           -5.5068    -2.3964     4.9801 C.3     
  14 C14          -10.2998    -0.7494     1.1196 C.2     
  15 O15          -10.5059    -0.8251     2.3124 O.2     
  16 N16           -8.2675    -1.9878     1.5940 N.am    
  17 C17           -9.0569    -1.3640     0.5292 C.3     
  18 C18           -9.4520    -2.4242    -0.5007 C.3     
  19 C19           -8.1902    -3.0481    -1.1001 C.3     
  20 C20          -10.2845    -3.5120     0.1808 C.3     
  21 C21          -13.4605     0.5663    -0.1619 C.2     
  22 O22          -13.1513     0.6516    -1.3315 O.2     
  23 N23          -11.1824    -0.1157     0.3222 N.am    
  24 C24          -12.3907     0.4817     0.8961 C.3     
  25 C25          -12.0700     1.8865     1.4106 C.3     
  26 C26          -10.9931     1.7994     2.4939 C.3     
  27 C27          -10.6724     3.2042     3.0084 C.3     
  28 N28           -9.6412     3.1208     4.0456 N.pl3   
  29 C29           -9.1890     4.2651     4.6589 C.2     
  30 N30           -8.2715     4.1909     5.5818 N.2     
  31 N31           -9.7045     5.4877     4.2989 N.pl3   
  32 C32          -15.8647     1.7434    -1.6221 C.2     
  33 O33          -14.9749     2.5580    -1.4967 O.2     
  34 N34          -14.7609     0.5470     0.1917 N.am    
  35 C35          -15.9010     0.5247    -0.7364 C.3     
  36 C36          -17.1867     0.5342     0.1170 C.3     
  37 C37          -16.7047     1.1324     1.4650 C.3     
  38 C38          -15.2757     0.5384     1.5731 C.3     
  39 C39          -18.1784     3.4225    -3.9004 C.2     
  40 O40          -19.1087     2.7225    -3.5608 O.2     
  41 N41          -16.8211     1.9282    -2.5536 N.am    
  42 C42          -16.7858     3.1130    -3.4146 C.3     
  43 C43          -15.8751     2.8445    -4.6144 C.3     
  44 C44          -14.4613     2.5302    -4.1212 C.3     
  45 C45          -16.4150     1.6531    -5.4081 C.3     
  46 C46          -19.6653     5.5417    -6.4814 C.2     
  47 O47          -18.5849     5.8081    -6.9638 O.2     
  48 N48          -18.3900     4.4774    -4.7122 N.am    
  49 C49          -19.7437     4.7783    -5.1844 C.3     
  50 C50          -20.4726     5.6240    -4.1382 C.3     
  51 C51          -20.5714     8.2091    -7.9031 C.2     
  52 O52          -20.5319     8.5104    -6.7290 O.2     
  53 N53          -20.7956     5.9283    -7.1053 N.am    
  54 C54          -20.7204     6.7646    -8.3058 C.3     
  55 C55          -21.9997     6.5936    -9.1274 C.3     
  56 C56          -22.0752     5.1827    -9.6516 C.2     
  57 O57          -21.2337     4.3706    -9.3303 O.2     
  58 N58          -23.0778     4.8234   -10.4775 N.am    
  59 C59          -20.8597    11.4557    -9.5584 C.2     
  60 O60          -21.3089    10.9621   -10.5710 O.2     
  61 N61          -20.4820     9.1662    -8.8478 N.am    
  62 C62          -20.3370    10.5705    -8.4564 C.3     
  63 C63          -18.8594    10.8814    -8.2100 C.3     
  64 C64          -20.6707    15.0061   -10.4082 C.2     
  65 O65          -19.8528    15.2275    -9.5404 O.2     
  66 N66          -20.8278    12.7958    -9.4186 N.am    
  67 C67          -21.3358    13.6563   -10.4899 C.3     
  68 C68          -22.8489    13.8231   -10.3358 C.3     
  69 C69          -23.5348    12.4712   -10.5429 C.3     
  70 C70          -25.0478    12.6381   -10.3887 C.3     
  71 N71          -25.7046    11.3437   -10.5870 N.pl3   
  72 C72          -27.0729    11.2459   -10.4958 C.2     
  73 N73          -27.7858    12.3050   -10.2330 N.2     
  74 N74          -27.6892    10.0312   -10.6819 N.pl3   
  75 C75          -21.2284    18.3173   -11.8531 C.2     
  76 O76          -22.2978    17.9929   -12.3244 O.2     
  77 N77          -20.9847    15.9672   -11.2993 N.am    
  78 C78          -20.3381    17.2793   -11.2198 C.3     
  79 C79          -19.0003    17.2344   -11.9607 C.3     
  80 C80          -18.0520    16.2717   -11.2432 C.3     
  81 C81          -16.7605    16.1310   -12.0514 C.3     
  82 C82          -17.7260    16.8191    -9.8521 C.3     
  83 C83          -21.4613    20.6433   -13.9987 C.2     
  84 O84          -20.6471    19.8942   -14.4956 O.2     
  85 N85          -20.8364    19.6061   -11.8956 N.am    
  86 C86          -21.7019    20.6151   -12.5113 C.3     
  87 C87          -21.3856    21.9892   -11.9174 C.3     
  88 C88          -21.7477    21.9979   -10.4309 C.3     
  89 C89          -21.4314    23.3720    -9.8370 C.3     
  90 N90          -21.7781    23.3803    -8.4136 N.pl3   
  91 C91          -21.5801    24.5160    -7.6645 C.2     
  92 N92          -21.8886    24.5234    -6.3981 N.2     
  93 N93          -21.0568    25.6439    -8.2512 N.pl3   
  94 C94          -20.7436    22.4241   -16.5249 C.2     
  95 O95          -20.1623    22.9824   -15.6248 O.2     
  96 N96          -22.1510    21.5008   -14.7767 N.am    
  97 C97          -21.9172    21.5282   -16.2227 C.3     
  98 C98          -23.1632    22.0637   -16.9308 C.3     
  99 C99          -24.3244    21.0885   -16.7270 C.3     
 100 C100         -25.6003    21.6821   -17.3275 C.3     
 101 C101         -24.0040    19.7622   -17.4192 C.3     
 102 O102         -20.3442    22.6018   -17.7940 O.3     
 103 C103          -0.6114    -5.3001     2.7591 C.2     
 104 O104           0.0944    -4.4043     2.3463 O.2     
 105 C105          15.0933   -14.2149     7.7668 C.3     
 106 C106          14.4620   -12.9744     7.1315 C.3     
 107 C107          12.9386   -13.1159     7.1408 C.3     
 108 C108          12.3073   -11.8754     6.5055 C.3     
 109 C109          10.7839   -12.0169     6.5148 C.3     
 110 C110          10.1526   -10.7764     5.8795 C.3     
 111 C111           8.6292   -10.9179     5.8889 C.3     
 112 C112           7.9979    -9.6774     5.2535 C.3     
 113 C113           6.4745    -9.8189     5.2629 C.3     
 114 C114           5.8432    -8.5784     4.6275 C.3     
 115 C115           4.3198    -8.7199     4.6369 C.3     
 116 C116           3.6885    -7.4794     4.0015 C.3     
 117 C117           2.1651    -7.6209     4.0109 C.3     
 118 C118           1.5338    -6.3804     3.3755 C.3     
 119 C119           0.0104    -6.5219     3.3849 C.3     
 120 H120          -2.5164    -5.9191     2.9884 H       
 121 H121          -1.9609    -3.1365     2.2985 H       
 122 H122          -3.0511    -3.3035     0.0776 H       
 123 H123          -1.5883    -4.3151     0.1489 H       
 124 H124          -3.1968    -5.0657     0.2816 H       
 125 H125          -4.3307    -2.1368     1.5620 H       
 126 H126          -6.4836    -3.6840     2.8523 H       
 127 H127          -7.2550    -1.5830     4.0192 H       
 128 H128          -5.4792     0.1903     4.3378 H       
 129 H129          -4.5230    -0.6156     3.0712 H       
 130 H130          -6.1591    -0.1654     1.3978 H       
 131 H131          -7.4034     0.2331     2.6065 H       
 132 H132          -6.0417     1.3458     2.3308 H       
 133 H133          -4.4383    -2.4743     4.7791 H       
 134 H134          -5.6662    -1.7781     5.8635 H       
 135 H135          -5.9173    -3.3910     5.1538 H       
 136 H136          -8.7015    -2.2849     2.4090 H       
 137 H137          -8.4639    -0.5890     0.0437 H       
 138 H138         -10.0394    -1.9600    -1.2929 H       
 139 H139          -8.4716    -3.8034    -1.8339 H       
 140 H140          -7.5971    -2.2731    -1.5857 H       
 141 H141          -7.6028    -3.5123    -0.3079 H       
 142 H142         -11.1835    -3.0675     0.6079 H       
 143 H143         -10.5660    -4.2673    -0.5529 H       
 144 H144          -9.6971    -3.9762     0.9731 H       
 145 H145         -11.0176    -0.0552    -0.6318 H       
 146 H146         -12.7443    -0.1357     1.7218 H       
 147 H147         -11.7078     2.5013     0.5867 H       
 148 H148         -12.9712     2.3345     1.8294 H       
 149 H149         -11.3553     1.1846     3.3178 H       
 150 H150         -10.0919     1.3514     2.0751 H       
 151 H151         -10.3102     3.8190     2.1844 H       
 152 H152         -11.5736     3.6522     3.4271 H       
 153 H153          -9.2774     2.2582     4.2996 H       
 154 H154          -7.9524     4.9983     6.0145 H       
 155 H155         -10.3873     5.5429     3.6121 H       
 156 H156          -9.3855     6.2950     4.7316 H       
 157 H157         -15.8648    -0.3779    -1.3464 H       
 158 H158         -17.9465     1.1702    -0.3374 H       
 159 H159         -17.5639    -0.4787     0.2574 H       
 160 H160         -16.6766     2.2211     1.4216 H       
 161 H161         -17.3308     0.7918     2.2897 H       
 162 H162         -15.3141    -0.4809     1.9573 H       
 163 H163         -14.6532     1.1630     2.2138 H       
 164 H164         -17.5328     1.2768    -2.6539 H       
 165 H165         -16.4012     3.9617    -2.8492 H       
 166 H166         -15.8489     3.7260    -5.2550 H       
 167 H167         -13.8125     2.3390    -4.9760 H       
 168 H168         -14.0766     3.3790    -3.5558 H       
 169 H169         -14.4875     1.6488    -3.4806 H       
 170 H170         -17.4223     1.8770    -5.7594 H       
 171 H171         -15.7662     1.4619    -6.2628 H       
 172 H172         -16.4413     0.7717    -4.7674 H       
 173 H173         -17.6459     5.0373    -4.9838 H       
 174 H174         -20.2885     3.8476    -5.3430 H       
 175 H175         -21.4798     5.8479    -4.4896 H       
 176 H176         -20.5293     5.0719    -3.2001 H       
 177 H177         -19.9278     6.5547    -3.9797 H       
 178 H178         -21.6590     5.6528    -6.7594 H       
 179 H179         -19.8609     6.4638    -8.9048 H       
 180 H180         -22.8660     6.7938    -8.4969 H       
 181 H181         -21.9901     7.2920    -9.9642 H       
 182 H182         -23.7508     5.4729   -10.7345 H       
 183 H183         -23.1264     3.9152   -10.8149 H       
 184 H184         -20.5136     8.9253    -9.7869 H       
 185 H185         -20.9040    10.7536    -7.5436 H       
 186 H186         -18.2925    10.6983    -9.1228 H       
 187 H187         -18.7516    11.9263    -7.9188 H       
 188 H188         -18.4814    10.2412    -7.4129 H       
 189 H189         -20.4685    13.1906    -8.6087 H       
 190 H190         -21.1170    13.2013   -11.4560 H       
 191 H191         -23.0734    14.1952    -9.3362 H       
 192 H192         -23.2136    14.5331   -11.0781 H       
 193 H193         -23.3102    12.0992   -11.5425 H       
 194 H194         -23.1701    11.7613    -9.8005 H       
 195 H195         -25.2724    13.0101    -9.3891 H       
 196 H196         -25.4126    13.3481   -11.1310 H       
 197 H197         -25.1740    10.5555   -10.7826 H       
 198 H198         -28.7512    12.2360   -10.1687 H       
 199 H199         -27.1587     9.2430   -10.8775 H       
 200 H200         -28.6546     9.9622   -10.6175 H       
 201 H201         -21.6389    15.7901   -11.9933 H       
 202 H202         -20.1662    17.5369   -10.1747 H       
 203 H203         -19.1622    16.8908   -12.9824 H       
 204 H204         -18.5609    18.2317   -11.9781 H       
 205 H205         -18.5287    15.2962   -11.1473 H       
 206 H206         -16.2838    17.1065   -12.1473 H       
 207 H207         -16.0849    15.4451   -11.5402 H       
 208 H208         -16.9927    15.7410   -13.0424 H       
 209 H209         -18.6461    16.9193    -9.2764 H       
 210 H210         -17.0504    16.1332    -9.3409 H       
 211 H211         -17.2493    17.7946    -9.9481 H       
 212 H212         -19.9811    19.8655   -11.5187 H       
 213 H213         -22.7451    20.3665   -12.3166 H       
 214 H214         -20.3224    22.1993   -12.0336 H       
 215 H215         -21.9656    22.7518   -12.4371 H       
 216 H216         -22.8109    21.7878   -10.3146 H       
 217 H217         -21.1677    21.2352    -9.9112 H       
 218 H218         -20.3682    23.5821    -9.9532 H       
 219 H219         -22.0114    24.1346   -10.3566 H       
 220 H220         -22.1473    22.5846    -7.9997 H       
 221 H221         -21.7489    25.3247    -5.8696 H       
 222 H222         -20.8272    25.6384    -9.1936 H       
 223 H223         -20.9171    26.4452    -7.7226 H       
 224 H224         -22.8022    22.0999   -14.3793 H       
 225 H225         -21.7042    20.5191   -16.5755 H       
 226 H226         -23.4279    23.0359   -16.5148 H       
 227 H227         -22.9590    22.1679   -17.9964 H       
 228 H228         -24.4709    20.9157   -15.6608 H       
 229 H229         -25.4538    21.8548   -18.3937 H       
 230 H230         -26.4276    20.9873   -17.1822 H       
 231 H231         -25.8286    22.6269   -16.8343 H       
 232 H232         -23.0950    19.3394   -16.9914 H       
 233 H233         -24.8312    19.0675   -17.2740 H       
 234 H234         -23.8575    19.9350   -18.4854 H       
 235 H235         -19.5869    23.1855   -17.9382 H       
 236 H236          16.1786   -14.1141     7.7602 H       
 237 H237          14.7439   -14.3144     8.7945 H       
 238 H238          14.8071   -15.0998     7.1984 H       
 239 H239          14.7482   -12.0895     7.6999 H       
 240 H240          14.8114   -12.8749     6.1038 H       
 241 H241          12.6524   -14.0008     6.5724 H       
 242 H242          12.5892   -13.2154     8.1685 H       
 243 H243          12.5935   -10.9905     7.0739 H       
 244 H244          12.6567   -11.7759     5.4778 H       
 245 H245          10.4977   -12.9018     5.9465 H       
 246 H246          10.4345   -12.1164     7.5425 H       
 247 H247          10.4388    -9.8915     6.4479 H       
 248 H248          10.5020   -10.6769     4.8518 H       
 249 H249           8.3430   -11.8028     5.3205 H       
 250 H250           8.2798   -11.0174     6.9165 H       
 251 H251           8.2841    -8.7925     5.8219 H       
 252 H252           8.3473    -9.5779     4.2258 H       
 253 H253           6.1883   -10.7038     4.6945 H       
 254 H254           6.1251    -9.9184     6.2906 H       
 255 H255           6.1294    -7.6935     5.1959 H       
 256 H256           6.1926    -8.4789     3.5998 H       
 257 H257           4.0336    -9.6048     4.0685 H       
 258 H258           3.9704    -8.8194     5.6646 H       
 259 H259           3.9747    -6.5945     4.5699 H       
 260 H260           4.0379    -7.3799     2.9738 H       
 261 H261           1.8789    -8.5058     3.4425 H       
 262 H262           1.8157    -7.7204     5.0386 H       
 263 H263           1.8200    -5.4955     3.9439 H       
 264 H264           1.8832    -6.2809     2.3479 H       
 265 H265          -0.3390    -6.6214     4.4126 H       
 266 H266          -0.2758    -7.4068     2.8165 H       
@<TRIPOS>BOND
   1    1    2 2
   2    1    4 1
   3    1    8 am
   4    3  103 am
   5    3    4 1
   6    3  120 1
   7    4    5 1
   8    4  121 1
   9    5  122 1
  10    5  123 1
  11    5  124 1
  12    6    7 2
  13    6    9 1
  14    6   16 am
  15    8    9 1
  16    8  125 1
  17    9   10 1
  18    9  126 1
  19   10   11 1
  20   10   13 1
  21   10  127 1
  22   11   12 1
  23   11  128 1
  24   11  129 1
  25   12  130 1
  26   12  131 1
  27   12  132 1
  28   13  133 1
  29   13  134 1
  30   13  135 1
  31   14   15 2
  32   14   17 1
  33   14   23 am
  34   16   17 1
  35   16  136 1
  36   17   18 1
  37   17  137 1
  38   18   19 1
  39   18   20 1
  40   18  138 1
  41   19  139 1
  42   19  140 1
  43   19  141 1
  44   20  142 1
  45   20  143 1
  46   20  144 1
  47   21   22 2
  48   21   24 1
  49   21   34 am
  50   23   24 1
  51   23  145 1
  52   24   25 1
  53   24  146 1
  54   25   26 1
  55   25  147 1
  56   25  148 1
  57   26   27 1
  58   26  149 1
  59   26  150 1
  60   27   28 1
  61   27  151 1
  62   27  152 1
  63   28   29 1
  64   28  153 1
  65   29   30 2
  66   29   31 1
  67   30  154 1
  68   31  155 1
  69   31  156 1
  70   32   33 2
  71   32   41 am
  72   32   35 1
  73   34   35 1
  74   34   38 1
  75   35   36 1
  76   35  157 1
  77   36   37 1
  78   36  158 1
  79   36  159 1
  80   37   38 1
  81   37  160 1
  82   37  161 1
  83   38  162 1
  84   38  163 1
  85   39   40 2
  86   39   42 1
  87   39   48 am
  88   41   42 1
  89   41  164 1
  90   42   43 1
  91   42  165 1
  92   43   44 1
  93   43   45 1
  94   43  166 1
  95   44  167 1
  96   44  168 1
  97   44  169 1
  98   45  170 1
  99   45  171 1
 100   45  172 1
 101   46   47 2
 102   46   49 1
 103   46   53 am
 104   48   49 1
 105   48  173 1
 106   49   50 1
 107   49  174 1
 108   50  175 1
 109   50  176 1
 110   50  177 1
 111   51   52 2
 112   51   54 1
 113   51   61 am
 114   53   54 1
 115   53  178 1
 116   54   55 1
 117   54  179 1
 118   55   56 1
 119   55  180 1
 120   55  181 1
 121   56   57 2
 122   56   58 am
 123   58  182 1
 124   58  183 1
 125   59   60 2
 126   59   62 1
 127   59   66 am
 128   61   62 1
 129   61  184 1
 130   62   63 1
 131   62  185 1
 132   63  186 1
 133   63  187 1
 134   63  188 1
 135   64   65 2
 136   64   67 1
 137   64   77 am
 138   66   67 1
 139   66  189 1
 140   67   68 1
 141   67  190 1
 142   68   69 1
 143   68  191 1
 144   68  192 1
 145   69   70 1
 146   69  193 1
 147   69  194 1
 148   70   71 1
 149   70  195 1
 150   70  196 1
 151   71   72 1
 152   71  197 1
 153   72   73 2
 154   72   74 1
 155   73  198 1
 156   74  199 1
 157   74  200 1
 158   75   76 2
 159   75   78 1
 160   75   85 am
 161   77   78 1
 162   77  201 1
 163   78   79 1
 164   78  202 1
 165   79   80 1
 166   79  203 1
 167   79  204 1
 168   80   81 1
 169   80   82 1
 170   80  205 1
 171   81  206 1
 172   81  207 1
 173   81  208 1
 174   82  209 1
 175   82  210 1
 176   82  211 1
 177   83   84 2
 178   83   86 1
 179   83   96 am
 180   85   86 1
 181   85  212 1
 182   86   87 1
 183   86  213 1
 184   87   88 1
 185   87  214 1
 186   87  215 1
 187   88   89 1
 188   88  216 1
 189   88  217 1
 190   89   90 1
 191   89  218 1
 192   89  219 1
 193   90   91 1
 194   90  220 1
 195   91   92 2
 196   91   93 1
 197   92  221 1
 198   93  222 1
 199   93  223 1
 200   94   95 2
 201   94   97 1
 202   94  102 1
 203   96   97 1
 204   96  224 1
 205   97   98 1
 206   97  225 1
 207   98   99 1
 208   98  226 1
 209   98  227 1
 210   99  100 1
 211   99  101 1
 212   99  228 1
 213  100  229 1
 214  100  230 1
 215  100  231 1
 216  101  232 1
 217  101  233 1
 218  101  234 1
 219  102  235 1
 220  103  104 2
 221  103  119 1
 222  105  106 1
 223  105  236 1
 224  105  237 1
 225  105  238 1
 226  106  107 1
 227  106  239 1
 228  106  240 1
 229  107  108 1
 230  107  241 1
 231  107  242 1
 232  108  109 1
 233  108  243 1
 234  108  244 1
 235  109  110 1
 236  109  245 1
 237  109  246 1
 238  110  111 1
 239  110  247 1
 240  110  248 1
 241  111  112 1
 242  111  249 1
 243  111  250 1
 244  112  113 1
 245  112  251 1
 246  112  252 1
 247  113  114 1
 248  113  253 1
 249  113  254 1
 250  114  115 1
 251  114  255 1
 252  114  256 1
 253  115  116 1
 254  115  257 1
 255  115  258 1
 256  116  117 1
 257  116  259 1
 258  116  260 1
 259  117  118 1
 260  117  261 1
 261  117  262 1
 262  118  119 1
 263  118  263 1
 264  118  264 1
 265  119  265 1
 266  119  266 1

#	End of record

