#	Name: ASD07120001
#	Creating user name:	WinNT
#	Creation time:	15. 06. 2019 21:09

#	Modifying user name:	WinNT
#	Modification time:	15. 06. 2019 21:09

#	Program:	/corina/corina34_cracker 3.40 0067  02.08.2006

@<TRIPOS>MOLECULE
ASD07120001
  84   87    0    0    0
SMALL
NO_CHARGES


@<TRIPOS>ATOM
   1 C1            -4.3314     1.3402     1.5762 C.2     
   2 N2            -4.5489     0.0115     1.5157 N.am    
   3 O3            -3.2846     1.8037     1.1689 O.2     
   4 O4            -5.2762     2.1547     2.0829 O.3     
   5 C5            -4.9736     3.5744     2.1169 C.3     
   6 C6            -5.6975     4.2219     3.2991 C.3     
   7 C7            -5.3786     5.7179     3.3350 C.3     
   8 C8            -5.8450     6.3702     2.0319 C.3     
   9 C9            -5.1211     5.7226     0.8498 C.3     
  10 C10           -5.4400     4.2266     0.8139 C.3     
  11 C11           -6.1025     6.3655     4.5171 C.3     
  12 C12           -3.8693     5.9140     3.4917 C.3     
  13 O13           -5.2619     3.6127     4.5161 O.3     
  14 C14           -6.0399     2.4808     4.9105 C.3     
  15 O15           -3.7115     5.9058     0.9962 O.3     
  16 C16            1.2595     6.0180    -2.2164 C.2     
  17 C17            0.6992     6.4745    -3.5486 C.3     
  18 C18           -0.6520     5.7791    -3.7425 C.3     
  19 C19           -1.4388     5.8263    -2.4567 C.ar    
  20 C20           -2.8114     5.6392    -2.5178 C.ar    
  21 C21           -3.5733     5.6666    -1.3680 C.ar    
  22 C22           -2.9650     5.8819    -0.1392 C.ar    
  23 C23           -1.5953     6.0718    -0.0739 C.ar    
  24 C24           -0.8291     6.0479    -1.2345 C.ar    
  25 O25            0.5104     6.2584    -1.1233 O.3     
  26 O26            2.3280     5.4591    -2.1390 O.2     
  27 C27           -0.9321     6.3052     1.2591 C.3     
  28 C28            1.5446     8.7404    -3.8452 C.2     
  29 C29            1.3580    10.2046    -3.8353 C.ar    
  30 C30            2.4253    11.0490    -4.1528 C.ar    
  31 C31            2.2473    12.4142    -4.1424 C.ar    
  32 C32            1.0079    12.9530    -3.8162 C.ar    
  33 C33           -0.0560    12.1166    -3.4999 C.ar    
  34 C34            0.1124    10.7498    -3.5141 C.ar    
  35 O35            2.6279     8.2675    -4.1298 O.2     
  36 N36            0.5140     7.9277    -3.5387 N.am    
  37 C37            3.3975    13.3257    -4.4846 C.3     
  38 C38            3.2646    13.7878    -5.9128 C.2     
  39 C39            4.2465    13.5941    -6.7580 C.2     
  40 C40            5.5605    13.0389    -6.2721 C.3     
  41 C41            4.0621    13.9265    -8.2163 C.3     
  42 O42            0.8367    14.2992    -3.8062 O.3     
  43 O43           -1.3852     6.4444    -4.7729 O.3     
  44 O44           -6.8496     4.0435     0.6675 O.3     
  45 H45           -3.8698    -0.5748     1.1470 H       
  46 H46           -5.3845    -0.3584     1.8409 H       
  47 H47           -3.8984     3.7141     2.2286 H       
  48 H48           -6.7727     4.0822     3.1874 H       
  49 H49           -6.9202     6.2305     1.9203 H       
  50 H50           -5.6178     7.4359     2.0575 H       
  51 H51           -5.4534     6.1873    -0.0785 H       
  52 H52           -4.9243     3.7653    -0.0283 H       
  53 H53           -5.7702     5.9008     5.4454 H       
  54 H54           -5.8753     7.4312     4.5427 H       
  55 H55           -7.1777     6.2258     4.4054 H       
  56 H56           -3.3454     5.3064     2.7539 H       
  57 H57           -3.6217     6.9645     3.3392 H       
  58 H58           -3.5657     5.6109     4.4937 H       
  59 H59           -5.9912     1.7179     4.1335 H       
  60 H60           -5.6457     2.0759     5.8425 H       
  61 H61           -7.0763     2.7853     5.0562 H       
  62 H62            1.3793     6.1926    -4.3523 H       
  63 H63           -0.4873     4.7404    -4.0288 H       
  64 H64           -3.2875     5.4710    -3.4725 H       
  65 H65           -4.6420     5.5211    -1.4240 H       
  66 H66           -0.6370     5.3487     1.6905 H       
  67 H67           -0.0492     6.9294     1.1213 H       
  68 H68           -1.6304     6.8062     1.9295 H       
  69 H69            3.3886    10.6313    -4.4056 H       
  70 H70           -1.0172    12.5390    -3.2470 H       
  71 H71           -0.7161    10.1004    -3.2725 H       
  72 H72           -0.3503     8.3050    -3.3117 H       
  73 H73            3.3862    14.1900    -3.8206 H       
  74 H74            4.3370    12.7865    -4.3631 H       
  75 H75            2.3598    14.2787    -6.2396 H       
  76 H76            5.5124    11.9500    -6.2594 H       
  77 H77            6.3598    13.3595    -6.9402 H       
  78 H78            5.7597    13.4055    -5.2651 H       
  79 H79            4.3563    14.9611    -8.3932 H       
  80 H80            4.6815    13.2642    -8.8211 H       
  81 H81            3.0152    13.7948    -8.4894 H       
  82 H82            0.5527    14.6659    -4.6547 H       
  83 H83           -2.2534     6.0573    -4.9505 H       
  84 H84           -7.2152     4.4326    -0.1388 H       
@<TRIPOS>BOND
   1    1    2 am
   2    1    3 2
   3    1    4 1
   4    2   45 1
   5    2   46 1
   6    4    5 1
   7    5    6 1
   8    5   10 1
   9    5   47 1
  10    6    7 1
  11    6   13 1
  12    6   48 1
  13    7    8 1
  14    7   11 1
  15    7   12 1
  16    8    9 1
  17    8   49 1
  18    8   50 1
  19    9   10 1
  20    9   15 1
  21    9   51 1
  22   10   44 1
  23   10   52 1
  24   11   53 1
  25   11   54 1
  26   11   55 1
  27   12   56 1
  28   12   57 1
  29   12   58 1
  30   13   14 1
  31   14   59 1
  32   14   60 1
  33   14   61 1
  34   15   22 1
  35   16   17 1
  36   16   25 1
  37   16   26 2
  38   17   18 1
  39   17   36 1
  40   17   62 1
  41   18   19 1
  42   18   43 1
  43   18   63 1
  44   19   20 ar
  45   19   24 ar
  46   20   21 ar
  47   20   64 1
  48   21   22 ar
  49   21   65 1
  50   22   23 ar
  51   23   24 ar
  52   23   27 1
  53   24   25 1
  54   27   66 1
  55   27   67 1
  56   27   68 1
  57   28   29 1
  58   28   35 2
  59   28   36 am
  60   29   30 ar
  61   29   34 ar
  62   30   31 ar
  63   30   69 1
  64   31   32 ar
  65   31   37 1
  66   32   33 ar
  67   32   42 1
  68   33   34 ar
  69   33   70 1
  70   34   71 1
  71   36   72 1
  72   37   38 1
  73   37   73 1
  74   37   74 1
  75   38   39 2
  76   38   75 1
  77   39   40 1
  78   39   41 1
  79   40   76 1
  80   40   77 1
  81   40   78 1
  82   41   79 1
  83   41   80 1
  84   41   81 1
  85   42   82 1
  86   43   83 1
  87   44   84 1

#	End of record

