#	Name: ASD02198717
#	Creating user name:	WinNT
#	Creation time:	15. 06. 2019 20:20

#	Modifying user name:	WinNT
#	Modification time:	15. 06. 2019 20:20

#	Program:	/corina/corina34_cracker 3.40 0067  02.08.2006

@<TRIPOS>MOLECULE
ASD02198717
  52   56    0    0    0
SMALL
NO_CHARGES


@<TRIPOS>ATOM
   1 F1             1.9600    -1.8866     2.2606 F       
   2 C2            -0.1512     1.5272    -0.2248 C.2     
   3 C3            -0.2296     0.1801    -0.0829 C.2     
   4 N4             0.8864    -0.5660     0.0778 N.pl3   
   5 N5             2.0676    -0.0688     0.1065 N.2     
   6 C6             2.2856     1.2227    -0.0200 C.2     
   7 C7             1.1336     2.1208    -0.1994 C.2     
   8 C8             0.7449    -1.9507     0.2204 C.ar    
   9 C9             1.2916    -2.5962     1.3254 C.ar    
  10 C10            1.1505    -3.9640     1.4650 C.ar    
  11 C11            0.4636    -4.6926     0.5028 C.ar    
  12 C12           -0.0820    -4.0472    -0.6002 C.ar    
  13 C13            0.0535    -2.6810    -0.7383 C.ar    
  14 C14            3.6605     1.7609     0.0179 C.2     
  15 N15            4.2569     2.5329    -0.9391 N.pl3   
  16 N16            5.5568     2.8216    -0.5054 N.2     
  17 C17            5.7476     2.2548     0.6593 C.2     
  18 C18            4.5812     1.5841     1.0274 C.2     
  19 C19            3.6730     2.9588    -2.1389 C.ar    
  20 C20            3.8611     4.2619    -2.5803 C.ar    
  21 C21            3.2839     4.6788    -3.7637 C.ar    
  22 C22            2.5193     3.8000    -4.5090 C.ar    
  23 C23            2.3297     2.5017    -4.0720 C.ar    
  24 C24            2.9093     2.0770    -2.8925 C.ar    
  25 O25            1.2801     3.3278    -0.3220 O.2     
  26 N26            0.3211    -6.0774     0.6439 N.am    
  27 C27            1.3405    -6.9527     0.6040 C.2     
  28 C28           -0.9598    -6.7603     0.8607 C.3     
  29 C29           -0.5935    -8.1674     1.3825 C.3     
  30 C30            0.8248    -8.3612     0.8009 C.3     
  31 O31            2.5043    -6.6563     0.4343 O.2     
  32 C32           -1.7907    -6.0088     1.9027 C.3     
  33 H33           -1.0398     2.1266    -0.3574 H       
  34 H34           -1.1958    -0.3022    -0.0980 H       
  35 H35            1.5747    -4.4660     2.3220 H       
  36 H36           -0.6157    -4.6148    -1.3481 H       
  37 H37           -0.3712    -2.1803    -1.5958 H       
  38 H38            6.6564     2.3022     1.2409 H       
  39 H39            4.4297     1.0215     1.9367 H       
  40 H40            4.4578     4.9488    -1.9985 H       
  41 H41            3.4295     5.6922    -4.1073 H       
  42 H42            2.0690     4.1283    -5.4341 H       
  43 H43            1.7315     1.8180    -4.6559 H       
  44 H44            2.7609     1.0630    -2.5517 H       
  45 H45           -1.5097    -6.8371    -0.0773 H       
  46 H46           -0.5715    -8.1858     2.4721 H       
  47 H47           -1.2818    -8.9185     0.9949 H       
  48 H48            0.7775    -8.8871    -0.1527 H       
  49 H49            1.4554    -8.9032     1.5057 H       
  50 H50           -2.0597    -5.0269     1.5135 H       
  51 H51           -2.6969    -6.5739     2.1210 H       
  52 H52           -1.2075    -5.8905     2.8159 H       
@<TRIPOS>BOND
   1    1    9 1
   2    2    3 2
   3    2    7 1
   4    2   33 1
   5    3    4 1
   6    3   34 1
   7    4    5 1
   8    4    8 1
   9    5    6 2
  10    6    7 1
  11    6   14 1
  12    7   25 2
  13    8    9 ar
  14    8   13 ar
  15    9   10 ar
  16   10   11 ar
  17   10   35 1
  18   11   12 ar
  19   11   26 1
  20   12   13 ar
  21   12   36 1
  22   13   37 1
  23   14   15 1
  24   14   18 2
  25   15   16 1
  26   15   19 1
  27   16   17 2
  28   17   18 1
  29   17   38 1
  30   18   39 1
  31   19   20 ar
  32   19   24 ar
  33   20   21 ar
  34   20   40 1
  35   21   22 ar
  36   21   41 1
  37   22   23 ar
  38   22   42 1
  39   23   24 ar
  40   23   43 1
  41   24   44 1
  42   26   28 1
  43   26   27 am
  44   27   31 2
  45   27   30 1
  46   28   29 1
  47   28   32 1
  48   28   45 1
  49   29   30 1
  50   29   46 1
  51   29   47 1
  52   30   48 1
  53   30   49 1
  54   32   50 1
  55   32   51 1
  56   32   52 1

#	End of record

