#	Name: ASD01915652
#	Creating user name:	WinNT
#	Creation time:	15. 06. 2019 20:05

#	Modifying user name:	WinNT
#	Modification time:	15. 06. 2019 20:05

#	Program:	/corina/corina34_cracker 3.40 0067  02.08.2006

@<TRIPOS>MOLECULE
ASD01915652
  47   50    0    0    0
SMALL
NO_CHARGES


@<TRIPOS>ATOM
   1 C1            -0.1054     1.0761    -0.3506 C.2     
   2 N2            -0.1177    -0.2089     0.1441 N.pl3   
   3 C3            -1.3618    -0.8300     0.6145 C.3     
   4 C4            -2.2923     0.2524     1.1590 C.3     
   5 N5            -2.4044     1.3988     0.2637 N.am    
   6 C6            -1.3267     1.8945    -0.3912 C.2     
   7 C7             1.1801     1.3477    -0.7261 C.2     
   8 C8             1.9007     0.1853    -0.4203 C.2     
   9 N9             1.0644    -0.6856     0.0946 N.2     
  10 C10            3.3758    -0.0274    -0.6437 C.3     
  11 O11            3.9443     1.1486    -1.2231 O.3     
  12 C12            5.2766     1.1227    -1.4901 C.ar    
  13 O13           -1.3671     2.9581    -0.9801 O.2     
  14 C14            5.8942     2.2303    -2.0527 C.ar    
  15 C15            6.0225    -0.0093    -1.1951 C.ar    
  16 C16            7.3766    -0.0331    -1.4675 C.ar    
  17 C17            7.9886     1.0699    -2.0336 C.ar    
  18 C18            7.2486     2.2014    -2.3232 C.ar    
  19 C19           -3.6531     1.9997     0.0767 C.ar    
  20 C20           -4.5026     1.5429    -0.9224 C.ar    
  21 C21           -4.0490     3.0512     0.8937 C.ar    
  22 C22           -5.2827     3.6424     0.7063 C.ar    
  23 C23           -6.1240     3.1888    -0.2933 C.ar    
  24 C24           -5.7354     2.1387    -1.1045 C.ar    
  25 C25           -1.7568     0.7309     2.5100 C.3     
  26 C26           -6.6551     1.6481    -2.1928 C.3     
  27 H27           -1.8478    -1.3443    -0.2146 H       
  28 H28           -1.1349    -1.5459     1.4045 H       
  29 H29           -3.2832    -0.1769     1.3073 H       
  30 H30            1.5585     2.2599    -1.1635 H       
  31 H31            3.8616    -0.2340     0.3099 H       
  32 H32            3.5232    -0.8718    -1.3171 H       
  33 H33            5.3165     3.1142    -2.2794 H       
  34 H34            5.5449    -0.8710    -0.7527 H       
  35 H35            7.9577    -0.9140    -1.2378 H       
  36 H36            9.0473     1.0493    -2.2458 H       
  37 H37            7.7288     3.0616    -2.7657 H       
  38 H38           -4.1996     0.7229    -1.5566 H       
  39 H39           -3.3926     3.4056     1.6747 H       
  40 H40           -5.5912     4.4597     1.3414 H       
  41 H41           -7.0885     3.6528    -0.4375 H       
  42 H42           -0.7540     1.1377     2.3799 H       
  43 H43           -2.4139     1.5041     2.9081 H       
  44 H44           -1.7211    -0.1085     3.2046 H       
  45 H45           -6.4528     2.1952    -3.1136 H       
  46 H46           -6.4871     0.5839    -2.3582 H       
  47 H47           -7.6907     1.8102    -1.8939 H       
@<TRIPOS>BOND
   1    1    2 1
   2    1    7 2
   3    1    6 1
   4    2    3 1
   5    2    9 1
   6    3    4 1
   7    3   27 1
   8    3   28 1
   9    4    5 1
  10    4   25 1
  11    4   29 1
  12    5    6 am
  13    5   19 1
  14    6   13 2
  15    7    8 1
  16    7   30 1
  17    8    9 2
  18    8   10 1
  19   10   11 1
  20   10   31 1
  21   10   32 1
  22   11   12 1
  23   12   14 ar
  24   12   15 ar
  25   14   18 ar
  26   14   33 1
  27   15   16 ar
  28   15   34 1
  29   16   17 ar
  30   16   35 1
  31   17   18 ar
  32   17   36 1
  33   18   37 1
  34   19   20 ar
  35   19   21 ar
  36   20   24 ar
  37   20   38 1
  38   21   22 ar
  39   21   39 1
  40   22   23 ar
  41   22   40 1
  42   23   24 ar
  43   23   41 1
  44   24   26 1
  45   25   42 1
  46   25   43 1
  47   25   44 1
  48   26   45 1
  49   26   46 1
  50   26   47 1

#	End of record

