#	Name: ASD09900020
#	Creating user name:	WinNT
#	Creation time:	15. 06. 2019 21:24

#	Modifying user name:	WinNT
#	Modification time:	15. 06. 2019 21:24

#	Program:	/corina/corina34_cracker 3.40 0067  02.08.2006

@<TRIPOS>MOLECULE
ASD09900020
  30   32    0    0    0
SMALL
NO_CHARGES


@<TRIPOS>ATOM
   1 C1             0.0616     1.2744    -0.4256 C.ar    
   2 C2             0.0886    -0.0833    -0.2933 C.ar    
   3 C3             1.2846    -0.7468    -0.0488 C.ar    
   4 C4             2.4648    -0.0472     0.0647 C.ar    
   5 C5             2.4632     1.3389    -0.0668 C.ar    
   6 C6             1.2494     2.0091    -0.3147 C.ar    
   7 N7             3.4534     2.2908    -0.0061 N.pl3   
   8 C8             2.8878     3.5346    -0.2101 C.2     
   9 C9             1.5500     3.3901    -0.3994 C.2     
  10 C10            3.6169     4.8113    -0.2190 C.2     
  11 O11            3.0175     5.8528    -0.4091 O.2     
  12 N12            4.9493     4.8279    -0.0168 N.am    
  13 C13            5.6575     6.0289    -0.1218 C.ar    
  14 C14            5.0753     7.2190     0.2955 C.ar    
  15 C15            5.7775     8.4035     0.1903 C.ar    
  16 C16            7.0589     8.4057    -0.3297 C.ar    
  17 C17            7.6412     7.2227    -0.7465 C.ar    
  18 C18            6.9468     6.0338    -0.6383 C.ar    
  19 H19           -0.8723     1.7810    -0.6196 H       
  20 H20           -0.8283    -0.6475    -0.3792 H       
  21 H21            1.2883    -1.8219     0.0536 H       
  22 H22            3.3893    -0.5719     0.2556 H       
  23 H23            4.3943     2.1176     0.1539 H       
  24 H24            0.8429     4.1858    -0.5817 H       
  25 H25            5.4169     4.0066     0.2017 H       
  26 H26            4.0745     7.2180     0.7014 H       
  27 H27            5.3253     9.3292     0.5142 H       
  28 H28            7.6059     9.3334    -0.4109 H       
  29 H29            8.6420     7.2278    -1.1525 H       
  30 H30            7.4040     5.1095    -0.9596 H       
@<TRIPOS>BOND
   1    1    2 ar
   2    1    6 ar
   3    1   19 1
   4    2    3 ar
   5    2   20 1
   6    3    4 ar
   7    3   21 1
   8    4    5 ar
   9    4   22 1
  10    5    7 1
  11    5    6 ar
  12    6    9 1
  13    7    8 1
  14    7   23 1
  15    8    9 2
  16    8   10 1
  17    9   24 1
  18   10   11 2
  19   10   12 am
  20   12   13 1
  21   12   25 1
  22   13   14 ar
  23   13   18 ar
  24   14   15 ar
  25   14   26 1
  26   15   16 ar
  27   15   27 1
  28   16   17 ar
  29   16   28 1
  30   17   18 ar
  31   17   29 1
  32   18   30 1

#	End of record

