#	Name: ASD07930065
#	Creating user name:	WinNT
#	Creation time:	15. 06. 2019 21:11

#	Modifying user name:	WinNT
#	Modification time:	15. 06. 2019 21:11

#	Program:	/corina/corina34_cracker 3.40 0067  02.08.2006

@<TRIPOS>MOLECULE
ASD07930065
  45   48    0    0    0
SMALL
NO_CHARGES


@<TRIPOS>ATOM
   1 C1             0.0148     1.2089    -0.7895 C.ar    
   2 C2            -0.0059     0.0004    -0.1032 C.ar    
   3 N3            -2.3886     1.2726     0.2466 N.ar    
   4 C4            -2.4015    -0.0508     0.1282 C.ar    
   5 N5            -1.1986    -0.7202     0.0092 N.pl3   
   6 C6            -3.5096     1.9591     0.3631 C.ar    
   7 N7            -3.5247    -0.7516     0.1205 N.ar    
   8 C8            -4.7275     1.2619     0.3599 C.ar    
   9 C9            -4.7005    -0.1435     0.2326 C.ar    
  10 C10           -5.9610     1.9416     0.4817 C.2     
  11 C11           -7.1221     1.2162     0.4736 C.2     
  12 C12           -7.0587    -0.2408     0.3396 C.2     
  13 N13           -5.8692    -0.8622     0.2251 N.am    
  14 C14           -8.4309     1.8990     0.5999 C.ar    
  15 C15           -9.1092     2.3302    -0.5407 C.ar    
  16 C16          -10.3289     2.9661    -0.4160 C.ar    
  17 C17          -10.8782     3.1758     0.8361 C.ar    
  18 C18          -10.2109     2.7508     1.9708 C.ar    
  19 C19           -8.9933     2.1085     1.8597 C.ar    
  20 C20            1.1584    -0.4903     0.4697 C.ar    
  21 C21            2.3411     0.2283     0.3552 C.ar    
  22 C22            2.3544     1.4363    -0.3325 C.ar    
  23 C23           -5.8228    -2.3204     0.0922 C.3     
  24 O24           -8.0869    -0.8940     0.3319 O.2     
  25 Cl25          -8.1574     1.5758     3.2850 Cl      
  26 Cl26          -8.4214     2.0685    -2.1130 Cl      
  27 C27            1.1929     1.9217    -0.9016 C.ar    
  28 S28            3.8227    -0.3898     1.0814 S.3     
  29 C29            5.0453     0.8824     0.6600 C.3     
  30 H30           -0.8905     1.5891    -1.2395 H       
  31 H31           -1.1817    -1.6900     0.0037 H       
  32 H32           -3.4901     3.0346     0.4592 H       
  33 H33           -5.9870     3.0168     0.5800 H       
  34 H34          -10.8548     3.3007    -1.2980 H       
  35 H35          -11.8321     3.6739     0.9282 H       
  36 H36          -10.6452     2.9175     2.9455 H       
  37 H37            1.1450    -1.4289     1.0037 H       
  38 H38            3.2737     1.9962    -0.4217 H       
  39 H39           -6.8372    -2.7190     0.1067 H       
  40 H40           -5.3422    -2.5843    -0.8499 H       
  41 H41           -5.2546    -2.7429     0.9208 H       
  42 H42            1.2059     2.8605    -1.4354 H       
  43 H43            5.1162     0.9733    -0.4239 H       
  44 H44            4.7371     1.8375     1.0854 H       
  45 H45            6.0171     0.6008     1.0654 H       
@<TRIPOS>BOND
   1    1    2 ar
   2    1   27 ar
   3    1   30 1
   4    2   20 ar
   5    2    5 1
   6    3    4 ar
   7    3    6 ar
   8    4    5 1
   9    4    7 ar
  10    5   31 1
  11    6    8 ar
  12    6   32 1
  13    7    9 ar
  14    8    9 ar
  15    8   10 1
  16    9   13 1
  17   10   11 2
  18   10   33 1
  19   11   12 1
  20   11   14 1
  21   12   13 am
  22   12   24 2
  23   13   23 1
  24   14   15 ar
  25   14   19 ar
  26   15   16 ar
  27   15   26 1
  28   16   17 ar
  29   16   34 1
  30   17   18 ar
  31   17   35 1
  32   18   19 ar
  33   18   36 1
  34   19   25 1
  35   20   21 ar
  36   20   37 1
  37   21   22 ar
  38   21   28 1
  39   22   27 ar
  40   22   38 1
  41   23   39 1
  42   23   40 1
  43   23   41 1
  44   27   42 1
  45   28   29 1
  46   29   43 1
  47   29   44 1
  48   29   45 1

#	End of record

