#	Name: ASD01028302
#	Creating user name:	WinNT
#	Creation time:	15. 06. 2019 18:56

#	Modifying user name:	WinNT
#	Modification time:	15. 06. 2019 18:56

#	Program:	/corina/corina34_cracker 3.40 0067  02.08.2006

@<TRIPOS>MOLECULE
ASD01028302
  34   37    0    0    0
SMALL
NO_CHARGES


@<TRIPOS>ATOM
   1 C1            -0.0184     1.5028     0.0103 C.3     
   2 C2             0.0021    -0.0041     0.0020 C.2     
   3 N3            -0.5232    -0.8133     0.9470 N.pl3   
   4 C4            -0.2737    -2.0981     0.5274 C.2     
   5 N5             0.3743    -2.0067    -0.6225 N.2     
   6 N6             0.5275    -0.7648    -0.9259 N.2     
   7 N7            -1.2016    -0.5899     2.1467 N.2     
   8 C8            -1.6046    -1.5951     2.8796 C.2     
   9 C9            -1.3669    -2.9192     2.4825 C.2     
  10 C10           -0.7100    -3.1766     1.3184 C.2     
  11 Cl11          -2.4457    -1.2863     4.3665 Cl      
  12 C12            1.3954     2.0244    -0.0004 C.ar    
  13 C13            2.2400     1.6995    -1.0597 C.ar    
  14 C14            3.5225     2.1536    -1.1001 C.ar    
  15 C15            4.0085     2.9640    -0.0597 C.ar    
  16 C16            3.1475     3.2935     1.0166 C.ar    
  17 C17            1.8289     2.8116     1.0227 C.ar    
  18 N18            5.2637     3.4240    -0.0722 N.ar    
  19 C19            5.7221     4.1798     0.8957 C.ar    
  20 C20            4.9285     4.5410     1.9825 C.ar    
  21 C21            3.6362     4.1054     2.0576 C.ar    
  22 C22           -0.7584     2.0096    -1.2292 C.3     
  23 H23           -0.5286     1.8543     0.9071 H       
  24 H24           -1.7069    -3.7365     3.1012 H       
  25 H25           -0.5241    -4.1941     1.0078 H       
  26 H26            1.8712     1.0771    -1.8615 H       
  27 H27            4.1643     1.8918    -1.9283 H       
  28 H28            1.1647     3.0570     1.8382 H       
  29 H29            6.7421     4.5317     0.8498 H       
  30 H30            5.3347     5.1651     2.7647 H       
  31 H31            3.0071     4.3756     2.8928 H       
  32 H32           -0.2482     1.6581    -2.1260 H       
  33 H33           -1.7809     1.6323    -1.2215 H       
  34 H34           -0.7731     3.0995    -1.2232 H       
@<TRIPOS>BOND
   1    1    2 1
   2    1   12 1
   3    1   22 1
   4    1   23 1
   5    2    3 1
   6    2    6 2
   7    3    4 1
   8    3    7 1
   9    4    5 2
  10    4   10 1
  11    5    6 1
  12    7    8 2
  13    8    9 1
  14    8   11 1
  15    9   10 2
  16    9   24 1
  17   10   25 1
  18   12   13 ar
  19   12   17 ar
  20   13   14 ar
  21   13   26 1
  22   14   15 ar
  23   14   27 1
  24   15   16 ar
  25   15   18 ar
  26   16   17 ar
  27   16   21 ar
  28   17   28 1
  29   18   19 ar
  30   19   20 ar
  31   19   29 1
  32   20   21 ar
  33   20   30 1
  34   21   31 1
  35   22   32 1
  36   22   33 1
  37   22   34 1

#	End of record

