#	Name: ASD01884178
#	Creating user name:	WinNT
#	Creation time:	15. 06. 2019 19:47

#	Modifying user name:	WinNT
#	Modification time:	15. 06. 2019 19:47

#	Program:	/corina/corina34_cracker 3.40 0067  02.08.2006

@<TRIPOS>MOLECULE
ASD01884178
  55   58    0    0    0
SMALL
NO_CHARGES


@<TRIPOS>ATOM
   1 C1            -0.0180     1.4789     0.0102 C.ar    
   2 C2             0.0021    -0.0041     0.0020 C.ar    
   3 C3             1.2148    -0.6837     0.0920 C.ar    
   4 C4             1.2297    -2.0625     0.0846 C.ar    
   5 C5             0.0145    -2.7611    -0.0142 C.ar    
   6 C6            -1.1556    -2.0001    -0.1003 C.ar    
   7 N7            -1.1358    -0.6818    -0.0855 N.ar    
   8 N8            -0.1850    -4.1281    -0.0377 N.am    
   9 C9            -1.4350    -4.5906    -0.1373 C.2     
  10 S10           -2.4839    -3.1653    -0.2102 S.3     
  11 C11            0.9497    -5.0510     0.0443 C.3     
  12 C12            1.2339    -5.3809     1.5110 C.3     
  13 C13           -0.0009    -6.0341     2.1353 C.3     
  14 C14            2.4190    -6.3449     1.5966 C.3     
  15 O15           -1.7825    -5.7565    -0.1715 O.2     
  16 C16            1.5677    -4.0938     2.2678 C.3     
  17 C17            1.1777     2.1947     0.0026 C.ar    
  18 C18            1.1529     3.5747     0.0098 C.ar    
  19 C19           -0.0556     4.2472     0.0244 C.ar    
  20 C20           -1.2457     3.5418     0.0320 C.ar    
  21 C21           -1.2331     2.1621     0.0196 C.ar    
  22 C22           -2.5584     4.2818     0.0480 C.3     
  23 C23           -2.6311     5.1500     1.3007 C.3     
  24 C24           -2.6670     5.1405    -1.2086 C.3     
  25 C25           -4.0863     5.6975    -1.3405 C.3     
  26 C26           -4.0461     5.7081     1.4690 C.3     
  27 S27           -4.4228     6.7980     0.0652 S.o2    
  28 O28           -3.4784     7.8597     0.0477 O.2     
  29 O29           -5.8111     7.1003     0.0839 O.2     
  30 H30            2.1405    -0.1324     0.1670 H       
  31 H31            2.1644    -2.5991     0.1535 H       
  32 H32            0.7119    -5.9680    -0.4949 H       
  33 H33            1.8294    -4.5857    -0.4005 H       
  34 H34           -0.2387    -6.9510     1.5961 H       
  35 H35            0.2015    -6.2691     3.1802 H       
  36 H36           -0.8452    -5.3473     2.0743 H       
  37 H37            3.2986    -5.8796     1.1519 H       
  38 H38            2.6214    -6.5799     2.6415 H       
  39 H39            2.1812    -7.2618     1.0574 H       
  40 H40            0.7234    -3.4071     2.2068 H       
  41 H41            1.7701    -4.3288     3.3128 H       
  42 H42            2.4473    -3.6285     1.8231 H       
  43 H43            2.1219     1.6705    -0.0085 H       
  44 H44            2.0789     4.1304     0.0043 H       
  45 H45           -0.0702     5.3271     0.0304 H       
  46 H46           -2.1627     1.6124     0.0256 H       
  47 H47           -3.3765     3.5617     0.0620 H       
  48 H48           -2.3732     4.5491     2.1728 H       
  49 H49           -1.9250     5.9754     1.2104 H       
  50 H50           -1.9587     5.9665    -1.1447 H       
  51 H51           -2.4340     4.5331    -2.0832 H       
  52 H52           -4.1731     6.2579    -2.2714 H       
  53 H53           -4.8022     4.8756    -1.3398 H       
  54 H54           -4.7617     4.8863     1.4949 H       
  55 H55           -4.1064     6.2755     2.3977 H       
@<TRIPOS>BOND
   1    1    2 1
   2    1   17 ar
   3    1   21 ar
   4    2    3 ar
   5    2    7 ar
   6    3    4 ar
   7    3   30 1
   8    4    5 ar
   9    4   31 1
  10    5    6 ar
  11    5    8 1
  12    6    7 ar
  13    6   10 1
  14    8    9 am
  15    8   11 1
  16    9   10 1
  17    9   15 2
  18   11   12 1
  19   11   32 1
  20   11   33 1
  21   12   13 1
  22   12   14 1
  23   12   16 1
  24   13   34 1
  25   13   35 1
  26   13   36 1
  27   14   37 1
  28   14   38 1
  29   14   39 1
  30   16   40 1
  31   16   41 1
  32   16   42 1
  33   17   18 ar
  34   17   43 1
  35   18   19 ar
  36   18   44 1
  37   19   20 ar
  38   19   45 1
  39   20   21 ar
  40   20   22 1
  41   21   46 1
  42   22   23 1
  43   22   24 1
  44   22   47 1
  45   23   26 1
  46   23   48 1
  47   23   49 1
  48   24   25 1
  49   24   50 1
  50   24   51 1
  51   25   27 1
  52   25   52 1
  53   25   53 1
  54   26   27 1
  55   26   54 1
  56   26   55 1
  57   27   28 2
  58   27   29 2

#	End of record

