#	Name: ASD02448030
#	Creating user name:	WinNT
#	Creation time:	15. 06. 2019 20:21

#	Modifying user name:	WinNT
#	Modification time:	15. 06. 2019 20:21

#	Program:	/corina/corina34_cracker 3.40 0067  02.08.2006

@<TRIPOS>MOLECULE
ASD02448030
  75   80    0    0    0
SMALL
NO_CHARGES


@<TRIPOS>ATOM
   1 C1            -0.0234     1.3535    -0.0539 C.ar    
   2 C2            -0.0044    -0.0279    -0.0458 C.ar    
   3 C3             1.2069    -0.7075    -0.0372 C.ar    
   4 C4             2.3985     0.0017    -0.0369 C.ar    
   5 C5             2.3768     1.3897    -0.0451 C.ar    
   6 C6             1.1618     2.0636    -0.0536 C.ar    
   7 N7             3.5747     2.1079    -0.0443 N.am    
   8 C8             3.8109     3.4697    -0.5409 C.3     
   9 C9             5.2375     3.8758    -0.3562 C.2     
  10 N10            6.0168     2.9459     0.2138 N.am    
  11 S11            5.0634     1.6179     0.5277 S.o2    
  12 O12            5.6573     4.9618    -0.6958 O.2     
  13 O13            4.9601     1.5004     1.9400 O.2     
  14 O14            5.5082     0.5716    -0.3247 O.2     
  15 N15            1.2248    -2.1094    -0.0285 N.pl3   
  16 C16            1.8566    -2.9190    -0.9344 C.2     
  17 C17            0.6234    -2.9174     0.8839 C.2     
  18 N18            0.8584    -4.1598     0.5665 N.2     
  19 C19            1.6154    -4.1991    -0.5489 C.2     
  20 C20            2.0989    -5.4232    -1.2335 C.ar    
  21 C21            1.7760    -6.6822    -0.7271 C.ar    
  22 C22            2.8723    -5.3194    -2.3877 C.ar    
  23 C23            3.3194    -6.4612    -3.0214 C.ar    
  24 C24            3.0010    -7.7085    -2.5124 C.ar    
  25 C25            2.2285    -7.8182    -1.3688 C.ar    
  26 C26           -0.1835    -2.4529     2.0689 C.3     
  27 C27            0.6975    -2.4100     3.2908 C.ar    
  28 C28            1.4606    -1.2862     3.5509 C.ar    
  29 C29            0.7356    -3.4925     4.1510 C.ar    
  30 C30            1.5407    -3.4587     5.2716 C.ar    
  31 C31            2.3159    -2.3313     5.5355 C.ar    
  32 C32            2.2693    -1.2415     4.6685 C.ar    
  33 C33            3.1834    -2.2891     6.7387 C.ar    
  34 C34            3.9580    -1.1620     7.0020 C.ar    
  35 C35            3.2209    -3.3747     7.6114 C.ar    
  36 C36            4.0289    -3.3332     8.7303 C.ar    
  37 C37            4.8017    -2.2168     8.9881 C.ar    
  38 C38            4.7657    -1.1286     8.1266 C.ar    
  39 Cl39           0.8079    -6.8207     0.7071 Cl      
  40 Cl40           3.5668    -9.1402    -3.3146 Cl      
  41 O41            5.5273    -0.0328     8.3839 O.3     
  42 C42            6.3408    -0.0694     9.5582 C.3     
  43 C43            7.1200     1.2417     9.6798 C.3     
  44 C44            7.9910     1.2026    10.9370 C.3     
  45 C45            8.7702     2.5137    11.0587 C.3     
  46 H46           -0.9667     1.8793    -0.0650 H       
  47 H47           -0.9326    -0.5800    -0.0457 H       
  48 H48            3.3416    -0.5246    -0.0299 H       
  49 H49            1.1438     3.1434    -0.0599 H       
  50 H50            3.5625     3.5111    -1.6014 H       
  51 H51            3.1690     4.1639     0.0015 H       
  52 H52            6.9627     3.0322     0.4103 H       
  53 H53            2.4342    -2.6014    -1.7900 H       
  54 H54            3.1212    -4.3470    -2.7863 H       
  55 H55            3.9186    -6.3814    -3.9163 H       
  56 H56            1.9828    -8.7936    -0.9756 H       
  57 H57           -0.5792    -1.4567     1.8711 H       
  58 H58           -1.0087    -3.1442     2.2400 H       
  59 H59            1.4240    -0.4421     2.8781 H       
  60 H60            0.1341    -4.3657     3.9457 H       
  61 H61            1.5695    -4.3042     5.9428 H       
  62 H62            2.8683    -0.3654     4.8682 H       
  63 H63            3.9293    -0.3164     6.3308 H       
  64 H64            2.6179    -4.2484     7.4129 H       
  65 H65            4.0567    -4.1752     9.4060 H       
  66 H66            5.4321    -2.1890     9.8646 H       
  67 H67            5.7070    -0.1981    10.4355 H       
  68 H68            7.0402    -0.9026     9.4899 H       
  69 H69            7.7539     1.3704     8.8025 H       
  70 H70            6.4206     2.0750     9.7481 H       
  71 H71            7.3572     1.0739    11.8144 H       
  72 H72            8.6904     0.3694    10.8687 H       
  73 H73            9.4041     2.6424    10.1813 H       
  74 H74            8.0708     3.3470    11.1270 H       
  75 H75            9.3907     2.4859    11.9544 H       
@<TRIPOS>BOND
   1    1    2 ar
   2    1    6 ar
   3    1   46 1
   4    2    3 ar
   5    2   47 1
   6    3    4 ar
   7    3   15 1
   8    4    5 ar
   9    4   48 1
  10    5    6 ar
  11    5    7 1
  12    6   49 1
  13    7    8 1
  14    7   11 am
  15    8    9 1
  16    8   50 1
  17    8   51 1
  18    9   10 am
  19    9   12 2
  20   10   11 am
  21   10   52 1
  22   11   13 2
  23   11   14 2
  24   15   16 1
  25   15   17 1
  26   16   19 2
  27   16   53 1
  28   17   18 2
  29   17   26 1
  30   18   19 1
  31   19   20 1
  32   20   21 ar
  33   20   22 ar
  34   21   39 1
  35   21   25 ar
  36   22   23 ar
  37   22   54 1
  38   23   24 ar
  39   23   55 1
  40   24   25 ar
  41   24   40 1
  42   25   56 1
  43   26   27 1
  44   26   57 1
  45   26   58 1
  46   27   28 ar
  47   27   29 ar
  48   28   32 ar
  49   28   59 1
  50   29   30 ar
  51   29   60 1
  52   30   31 ar
  53   30   61 1
  54   31   32 ar
  55   31   33 1
  56   32   62 1
  57   33   34 ar
  58   33   35 ar
  59   34   38 ar
  60   34   63 1
  61   35   36 ar
  62   35   64 1
  63   36   37 ar
  64   36   65 1
  65   37   38 ar
  66   37   66 1
  67   38   41 1
  68   41   42 1
  69   42   43 1
  70   42   67 1
  71   42   68 1
  72   43   44 1
  73   43   69 1
  74   43   70 1
  75   44   45 1
  76   44   71 1
  77   44   72 1
  78   45   73 1
  79   45   74 1
  80   45   75 1

#	End of record

