#	Name: ASD01884229
#	Creating user name:	WinNT
#	Creation time:	15. 06. 2019 19:47

#	Modifying user name:	WinNT
#	Modification time:	15. 06. 2019 19:47

#	Program:	/corina/corina34_cracker 3.40 0067  02.08.2006

@<TRIPOS>MOLECULE
ASD01884229
  40   42    0    0    0
SMALL
NO_CHARGES


@<TRIPOS>ATOM
   1 C1            -0.0168     1.3908     0.0097 C.ar    
   2 C2             0.0021    -0.0041     0.0020 C.ar    
   3 C3            -1.1686    -0.7210     0.0098 C.ar    
   4 C4            -2.4131    -0.0704     0.0252 C.ar    
   5 C5            -2.4159     1.3264     0.0328 C.ar    
   6 C6            -1.2419     2.0535     0.0308 C.ar    
   7 N7            -3.6710    -0.6449     0.0349 N.am    
   8 C8            -4.7414     0.1550     0.0501 C.2     
   9 S9            -4.1169     1.8127     0.0527 S.3     
  10 C10            1.2524     2.1591     0.0017 C.ar    
  11 O11           -5.9096    -0.1865     0.0598 O.2     
  12 C12           -3.8270    -2.1015     0.0282 C.3     
  13 C13           -3.8664    -2.6169     1.4683 C.3     
  14 C14           -5.0467    -1.9809     2.2054 C.3     
  15 C15           -4.0294    -4.1382     1.4612 C.3     
  16 C16           -2.5626    -2.2469     2.1782 C.3     
  17 C17            2.4747     1.4900    -0.0136 C.ar    
  18 C18            3.6523     2.2097    -0.0209 C.ar    
  19 C19            3.6208     3.5926    -0.0127 C.ar    
  20 C20            2.4103     4.2619     0.0025 C.ar    
  21 C21            1.2265     3.5523     0.0037 C.ar    
  22 H22            0.9478    -0.5255    -0.0105 H       
  23 H23           -1.1321    -1.8003     0.0037 H       
  24 H24           -1.2735     3.1330     0.0371 H       
  25 H25           -4.7559    -2.3651    -0.4776 H       
  26 H26           -2.9861    -2.5546    -0.4969 H       
  27 H27           -5.9756    -2.2445     1.6996 H       
  28 H28           -5.0748    -2.3481     3.2313 H       
  29 H29           -4.9306    -0.8971     2.2104 H       
  30 H30           -3.1885    -4.5912     0.9361 H       
  31 H31           -4.0574    -4.5053     2.4872 H       
  32 H32           -4.9582    -4.4017     0.9554 H       
  33 H33           -2.4465    -1.1631     2.1832 H       
  34 H34           -2.5907    -2.6140     3.2041 H       
  35 H35           -1.7217    -2.6999     1.6531 H       
  36 H36            2.5005     0.4104    -0.0193 H       
  37 H37            4.6002     1.6923    -0.0327 H       
  38 H38            4.5447     4.1518    -0.0177 H       
  39 H39            2.3915     5.3417     0.0089 H       
  40 H40            0.2820     4.0759     0.0151 H       
@<TRIPOS>BOND
   1    1    2 ar
   2    1   10 1
   3    1    6 ar
   4    2    3 ar
   5    2   22 1
   6    3    4 ar
   7    3   23 1
   8    4    5 ar
   9    4    7 1
  10    5    6 ar
  11    5    9 1
  12    6   24 1
  13    7    8 am
  14    7   12 1
  15    8    9 1
  16    8   11 2
  17   10   17 ar
  18   10   21 ar
  19   12   13 1
  20   12   25 1
  21   12   26 1
  22   13   14 1
  23   13   15 1
  24   13   16 1
  25   14   27 1
  26   14   28 1
  27   14   29 1
  28   15   30 1
  29   15   31 1
  30   15   32 1
  31   16   33 1
  32   16   34 1
  33   16   35 1
  34   17   18 ar
  35   17   36 1
  36   18   19 ar
  37   18   37 1
  38   19   20 ar
  39   19   38 1
  40   20   21 ar
  41   20   39 1
  42   21   40 1

#	End of record

