#	Name: ASD04880257
#	Creating user name:	WinNT
#	Creation time:	15. 06. 2019 20:53

#	Modifying user name:	WinNT
#	Modification time:	15. 06. 2019 20:53

#	Program:	/corina/corina34_cracker 3.40 0067  02.08.2006

@<TRIPOS>MOLECULE
ASD04880257
  39   42    0    0    0
SMALL
NO_CHARGES


@<TRIPOS>ATOM
   1 C1            -0.0144     1.2118     0.0087 C.2     
   2 O2             0.0581    -0.0018    -0.0140 O.2     
   3 C3             1.2185     2.0263    -0.0194 C.ar    
   4 C4             2.4678     1.4102     0.0723 C.ar    
   5 C5             3.6162     2.1779     0.0449 C.ar    
   6 C6             3.5282     3.5560    -0.0732 C.ar    
   7 C7             2.2926     4.1706    -0.1644 C.ar    
   8 C8             1.1386     3.4144    -0.1435 C.ar    
   9 F9             4.8265     1.5844     0.1339 F       
  10 N10           -1.2192     1.8142     0.0539 N.am    
  11 N11           -1.4360     3.1833     0.1955 N.2     
  12 C12           -2.6796     3.5204     0.2115 C.2     
  13 C13           -3.5396     2.2853     0.0670 C.3     
  14 C14           -2.5204     1.1341    -0.0448 C.3     
  15 O15           -4.6295     8.7567     0.7289 O.3     
  16 C16           -3.7261     9.7495     1.2265 C.3     
  17 C17           -2.3913     9.5999     0.4842 C.3     
  18 O18           -1.8864     8.2832     0.7317 O.3     
  19 C19           -2.7702     7.2554     0.6058 C.ar    
  20 C20           -4.1422     7.4917     0.6069 C.ar    
  21 C21           -2.2915     5.9639     0.4769 C.ar    
  22 C22           -3.1858     4.8980     0.3499 C.ar    
  23 C23           -4.5612     5.1421     0.3540 C.ar    
  24 C24           -5.0309     6.4319     0.4819 C.ar    
  25 H25            2.5364     0.3364     0.1648 H       
  26 H26            4.4283     4.1525    -0.0939 H       
  27 H27            2.2308     5.2449    -0.2559 H       
  28 H28            0.1749     3.8960    -0.2189 H       
  29 H29           -4.1732     2.1557     0.9444 H       
  30 H30           -4.1449     2.3445    -0.8375 H       
  31 H31           -2.6162     0.6265    -1.0046 H       
  32 H32           -2.6484     0.4298     0.7772 H       
  33 H33           -4.1370    10.7431     1.0475 H       
  34 H34           -3.5709     9.6025     2.2954 H       
  35 H35           -2.5479     9.7385    -0.5855 H       
  36 H36           -1.6813    10.3410     0.8515 H       
  37 H37           -1.2274     5.7797     0.4742 H       
  38 H38           -5.2561     4.3211     0.2566 H       
  39 H39           -6.0946     6.6189     0.4852 H       
@<TRIPOS>BOND
   1    1    2 2
   2    1    3 1
   3    1   10 am
   4    3    4 ar
   5    3    8 ar
   6    4    5 ar
   7    4   25 1
   8    5    6 ar
   9    5    9 1
  10    6    7 ar
  11    6   26 1
  12    7    8 ar
  13    7   27 1
  14    8   28 1
  15   10   11 1
  16   10   14 1
  17   11   12 2
  18   12   13 1
  19   12   22 1
  20   13   14 1
  21   13   29 1
  22   13   30 1
  23   14   31 1
  24   14   32 1
  25   15   16 1
  26   15   20 1
  27   16   17 1
  28   16   33 1
  29   16   34 1
  30   17   18 1
  31   17   35 1
  32   17   36 1
  33   18   19 1
  34   19   20 ar
  35   19   21 ar
  36   20   24 ar
  37   21   22 ar
  38   21   37 1
  39   22   23 ar
  40   23   24 ar
  41   23   38 1
  42   24   39 1

#	End of record

