#	Name: ASD03080070
#	Creating user name:	WinNT
#	Creation time:	15. 06. 2019 20:26

#	Modifying user name:	WinNT
#	Modification time:	15. 06. 2019 20:26

#	Program:	/corina/corina34_cracker 3.40 0067  02.08.2006

@<TRIPOS>MOLECULE
ASD03080070
  26   28    0    0    0
SMALL
NO_CHARGES


@<TRIPOS>ATOM
   1 O1            -0.0144     1.2085     0.0087 O.3     
   2 N2             0.0021    -0.0041     0.0020 N.2     
   3 C3             1.2350    -0.4422    -0.0121 C.2     
   4 N4             2.0458     0.6365    -0.0141 N.2     
   5 C5             1.2411     1.6829    -0.0008 C.2     
   6 C6             1.6453     3.1042     0.0030 C.ar    
   7 C7             0.6750     4.1082     0.0182 C.ar    
   8 C8             1.0585     5.4344     0.0216 C.ar    
   9 C9             2.4060     5.7691     0.0100 C.ar    
  10 C10            3.3711     4.7754    -0.0051 C.ar    
  11 C11            2.9982     3.4475    -0.0028 C.ar    
  12 F12            2.7771     7.0681     0.0129 F       
  13 F13            0.1216     6.4077     0.0358 F       
  14 C14            3.0155    -2.1948    -0.0376 C.ar    
  15 C15            1.6627    -1.8634    -0.0234 C.ar    
  16 C16            0.7145    -2.8900    -0.0194 C.ar    
  17 C17            1.1637    -4.1989    -0.0299 C.ar    
  18 C18            2.5257    -4.4471    -0.0438 C.ar    
  19 N19            3.3973    -3.4556    -0.0468 N.ar    
  20 Cl20           3.0958    -6.0868    -0.0570 Cl      
  21 H21           -0.3731     3.8479     0.0269 H       
  22 H22            4.4179     5.0410    -0.0141 H       
  23 H23            3.7521     2.6742    -0.0101 H       
  24 H24            3.7583    -1.4109    -0.0453 H       
  25 H25           -0.3423    -2.6675    -0.0081 H       
  26 H26            0.4595    -5.0178    -0.0269 H       
@<TRIPOS>BOND
   1    1    2 1
   2    1    5 1
   3    2    3 2
   4    3    4 1
   5    3   15 1
   6    4    5 2
   7    5    6 1
   8    6    7 ar
   9    6   11 ar
  10    7    8 ar
  11    7   21 1
  12    8    9 ar
  13    8   13 1
  14    9   10 ar
  15    9   12 1
  16   10   11 ar
  17   10   22 1
  18   11   23 1
  19   14   15 ar
  20   14   19 ar
  21   14   24 1
  22   15   16 ar
  23   16   17 ar
  24   16   25 1
  25   17   18 ar
  26   17   26 1
  27   18   19 ar
  28   18   20 1

#	End of record

