#	Name: ASD01883270
#	Creating user name:	WinNT
#	Creation time:	15. 06. 2019 19:46

#	Modifying user name:	WinNT
#	Modification time:	15. 06. 2019 19:46

#	Program:	/corina/corina34_cracker 3.40 0067  02.08.2006

@<TRIPOS>MOLECULE
ASD01883270
  52   54    0    0    0
SMALL
NO_CHARGES


@<TRIPOS>ATOM
   1 N1            -0.5122     2.0813     0.2715 N.am    
   2 C2            -0.2804     0.7614     0.1463 C.2     
   3 C3            -1.3677    -0.1443     0.0848 C.2     
   4 C4            -2.6764     0.3663     0.1573 C.2     
   5 C5            -2.8531     1.7582     0.2881 C.2     
   6 C6            -1.7759     2.5730     0.3470 C.2     
   7 O7             0.8643     0.3459     0.0853 O.2     
   8 C8            -1.1393    -1.5517    -0.0488 C.1     
   9 N9            -0.9580    -2.6681    -0.1549 N.1     
  10 C10            0.6223     3.0061     0.3338 C.3     
  11 C11            0.9890     3.4594    -1.0808 C.3     
  12 C12            2.1738     4.4253    -1.0158 C.3     
  13 C13            2.6201     4.7812    -2.4353 C.3     
  14 C14            1.7539     5.6986    -0.2788 C.3     
  15 C15           -3.8423    -0.5385     0.0970 C.ar    
  16 C16           -4.0595    -1.4684     1.1165 C.ar    
  17 C17           -5.1478    -2.3119     1.0598 C.ar    
  18 C18           -6.0311    -2.2399    -0.0107 C.ar    
  19 C19           -5.8186    -1.3127    -1.0328 C.ar    
  20 C20           -4.7332    -0.4618    -0.9776 C.ar    
  21 N21           -7.1311    -3.0953    -0.0643 N.3     
  22 C22           -8.3889    -2.3443     0.0589 C.3     
  23 C23           -9.5689    -3.3120    -0.0647 C.3     
  24 O24           -9.4481    -4.3326     0.9298 O.3     
  25 C25           -8.2347    -5.0843     0.8389 C.3     
  26 C26           -7.0413    -4.1346     0.9716 C.3     
  27 O27           -6.6839    -1.2445    -2.0800 O.3     
  28 H28           -3.8485     2.1734     0.3453 H       
  29 H29           -1.9236     3.6381     0.4476 H       
  30 H30            0.3509     3.8741     0.9346 H       
  31 H31            1.4765     2.5032     0.7871 H       
  32 H32            1.2604     2.5914    -1.6816 H       
  33 H33            0.1347     3.9623    -1.5341 H       
  34 H34            2.9990     3.9526    -0.4832 H       
  35 H35            1.7948     5.2539    -2.9678 H       
  36 H36            3.4641     5.4693    -2.3890 H       
  37 H37            2.9192     3.8741    -2.9603 H       
  38 H38            0.9286     6.1713    -0.8113 H       
  39 H39            1.4359     5.4450     0.7325 H       
  40 H40            2.5980     6.3867    -0.2325 H       
  41 H41           -3.3743    -1.5265     1.9492 H       
  42 H42           -5.3143    -3.0306     1.8485 H       
  43 H43           -4.5678     0.2561    -1.7673 H       
  44 H44           -8.4240    -1.8497     1.0295 H       
  45 H45           -8.4461    -1.5977    -0.7332 H       
  46 H46          -10.5022    -2.7686     0.0829 H       
  47 H47           -9.5645    -3.7667    -1.0553 H       
  48 H48           -8.2031    -5.8227     1.6401 H       
  49 H49           -8.1916    -5.5905    -0.1254 H       
  50 H50           -6.1147    -4.6947     0.8459 H       
  51 H51           -7.0548    -3.6685     1.9569 H       
  52 H52           -7.3685    -0.5687    -1.9811 H       
@<TRIPOS>BOND
   1    1    2 am
   2    1   10 1
   3    1    6 1
   4    2    3 1
   5    2    7 2
   6    3    4 2
   7    3    8 1
   8    4    5 1
   9    4   15 1
  10    5    6 2
  11    5   28 1
  12    6   29 1
  13    8    9 3
  14   10   11 1
  15   10   30 1
  16   10   31 1
  17   11   12 1
  18   11   32 1
  19   11   33 1
  20   12   13 1
  21   12   14 1
  22   12   34 1
  23   13   35 1
  24   13   36 1
  25   13   37 1
  26   14   38 1
  27   14   39 1
  28   14   40 1
  29   15   16 ar
  30   15   20 ar
  31   16   17 ar
  32   16   41 1
  33   17   18 ar
  34   17   42 1
  35   18   19 ar
  36   18   21 1
  37   19   20 ar
  38   19   27 1
  39   20   43 1
  40   21   22 1
  41   21   26 1
  42   22   23 1
  43   22   44 1
  44   22   45 1
  45   23   24 1
  46   23   46 1
  47   23   47 1
  48   24   25 1
  49   25   26 1
  50   25   48 1
  51   25   49 1
  52   26   50 1
  53   26   51 1
  54   27   52 1

#	End of record

