#	Name: ASD05850006
#	Creating user name:	WinNT
#	Creation time:	15. 06. 2019 21:04

#	Modifying user name:	WinNT
#	Modification time:	15. 06. 2019 21:04

#	Program:	/corina/corina34_cracker 3.40 0067  02.08.2006

@<TRIPOS>MOLECULE
ASD05850006
  28   29    0    0    0
SMALL
NO_CHARGES


@<TRIPOS>ATOM
   1 C1             0.0845     1.9269     0.0778 C.ar    
   2 C2             1.1313     2.2442    -0.7688 C.ar    
   3 C3             2.2519     1.4400    -0.8165 C.ar    
   4 C4             2.3275     0.3063    -0.0095 C.ar    
   5 C5             1.2698    -0.0086     0.8416 C.ar    
   6 C6             0.1541     0.8028     0.8810 C.ar    
   7 C7             3.5289    -0.5622    -0.0567 C.ar    
   8 C8             3.7242    -1.4328    -1.1329 C.ar    
   9 C9             4.8496    -2.2407    -1.1688 C.ar    
  10 C10            5.7747    -2.1850    -0.1438 C.ar    
  11 C11            5.5840    -1.3242     0.9229 C.ar    
  12 C12            4.4707    -0.5100     0.9685 C.ar    
  13 O13            2.8139    -1.4870    -2.1397 O.3     
  14 N14            4.2762     2.1276     1.7297 N.am    
  15 S15            4.2336     0.5844     2.3289 S.o2    
  16 O16            2.9068     0.3696     2.7902 O.2     
  17 O17            5.3776     0.4450     3.1602 O.2     
  18 H18           -0.7886     2.5615     0.1152 H       
  19 H19            1.0715     3.1229    -1.3940 H       
  20 H20            3.0684     1.6885    -1.4782 H       
  21 H21            1.3229    -0.8862     1.4689 H       
  22 H22           -0.6662     0.5598     1.5402 H       
  23 H23            5.0036    -2.9148    -1.9984 H       
  24 H24            6.6503    -2.8165    -0.1751 H       
  25 H25            6.3112    -1.2865     1.7205 H       
  26 H26            2.9903    -0.8700    -2.8631 H       
  27 H27            4.4798     2.2790     0.7935 H       
  28 H28            4.0975     2.8802     2.3150 H       
@<TRIPOS>BOND
   1    1    2 ar
   2    1    6 ar
   3    1   18 1
   4    2    3 ar
   5    2   19 1
   6    3    4 ar
   7    3   20 1
   8    4    5 ar
   9    4    7 1
  10    5    6 ar
  11    5   21 1
  12    6   22 1
  13    7    8 ar
  14    7   12 ar
  15    8    9 ar
  16    8   13 1
  17    9   10 ar
  18    9   23 1
  19   10   11 ar
  20   10   24 1
  21   11   12 ar
  22   11   25 1
  23   12   15 1
  24   13   26 1
  25   14   15 am
  26   14   27 1
  27   14   28 1
  28   15   16 2
  29   15   17 2

#	End of record

