#	Name: ASD00461024
#	Creating user name:	WinNT
#	Creation time:	15. 06. 2019 18:36

#	Modifying user name:	WinNT
#	Modification time:	15. 06. 2019 18:36

#	Program:	/corina/corina34_cracker 3.40 0067  02.08.2006

@<TRIPOS>MOLECULE
ASD00461024
  50   52    0    0    0
SMALL
NO_CHARGES


@<TRIPOS>ATOM
   1 C1             1.2177     1.2631    -0.9884 C.ar    
   2 C2             1.2385    -0.1242    -0.9735 C.ar    
   3 C3             2.3907     1.9721    -0.8174 C.ar    
   4 C4             2.4379    -0.7956    -0.7867 C.ar    
   5 O5             0.0857    -0.8241    -1.1410 O.3     
   6 C6             3.5851     1.3004    -0.6314 C.ar    
   7 C7             3.6085    -0.0817    -0.6161 C.ar    
   8 C8             4.9118    -0.8105    -0.4128 C.3     
   9 N9             5.7108    -0.1108     0.6022 N.3     
  10 C10            6.6534    -1.0291     1.2551 C.3     
  11 C11            7.4535    -0.2774     2.2875 C.ar    
  12 C12            6.9948    -0.1920     3.5862 C.ar    
  13 C13            8.6492     0.3211     1.9328 C.ar    
  14 C14            7.7357     0.5034     4.5398 C.ar    
  15 C15            9.3888     1.0122     2.8753 C.ar    
  16 C16            8.9364     1.1091     4.1758 C.ar    
  17 C17           -1.1117    -0.0668    -1.3277 C.3     
  18 H18            6.1943     0.6786     0.2008 H       
  19 C19            7.2473     0.5990     5.9378 C.ar    
  20 C20            6.9563    -0.5579     6.6573 C.ar    
  21 C21            6.5027    -0.4632     7.9576 C.ar    
  22 C22            6.3370     0.7773     8.5462 C.ar    
  23 C23            6.6240     1.9294     7.8362 C.ar    
  24 C24            7.0835     1.8462     6.5376 C.ar    
  25 C25            7.3957     3.1021     5.7654 C.3     
  26 C26            5.6852    -0.8502    -1.7323 C.3     
  27 H27            0.2858     1.7880    -1.1380 H       
  28 H28            2.3750     3.0519    -0.8293 H       
  29 H29            2.4566    -1.8753    -0.7744 H       
  30 H30            4.5012     1.8566    -0.4979 H       
  31 H31            4.7107    -1.8283    -0.0787 H       
  32 H32            6.1002    -1.8338     1.7394 H       
  33 H33            7.3272    -1.4495     0.5086 H       
  34 H34            6.0631    -0.6631     3.8630 H       
  35 H35            9.0067     0.2481     0.9163 H       
  36 H36           10.3220     1.4769     2.5932 H       
  37 H37            9.5147     1.6489     4.9110 H       
  38 H38           -1.0139     0.5540    -2.2183 H       
  39 H39           -1.9558    -0.7457    -1.4490 H       
  40 H40           -1.2788     0.5689    -0.4582 H       
  41 H41            7.0850    -1.5271     6.1985 H       
  42 H42            6.2765    -1.3594     8.5162 H       
  43 H43            5.9819     0.8468     9.5638 H       
  44 H44            6.4925     2.8955     8.3006 H       
  45 H45            8.4607     3.3211     5.8432 H       
  46 H46            7.1295     2.9602     4.7180 H       
  47 H47            6.8229     3.9333     6.1766 H       
  48 H48            6.6279    -1.3773    -1.5852 H       
  49 H49            5.0924    -1.3693    -2.4854 H       
  50 H50            5.8863     0.1677    -2.0664 H       
@<TRIPOS>BOND
   1    1    2 ar
   2    1    3 ar
   3    1   27 1
   4    2    4 ar
   5    2    5 1
   6    3    6 ar
   7    3   28 1
   8    4    7 ar
   9    4   29 1
  10    5   17 1
  11    6    7 ar
  12    6   30 1
  13    7    8 1
  14    8    9 1
  15    8   26 1
  16    8   31 1
  17    9   10 1
  18    9   18 1
  19   10   11 1
  20   10   32 1
  21   10   33 1
  22   11   12 ar
  23   11   13 ar
  24   12   14 ar
  25   12   34 1
  26   13   15 ar
  27   13   35 1
  28   14   19 1
  29   14   16 ar
  30   15   16 ar
  31   15   36 1
  32   16   37 1
  33   17   38 1
  34   17   39 1
  35   17   40 1
  36   19   20 ar
  37   19   24 ar
  38   20   21 ar
  39   20   41 1
  40   21   22 ar
  41   21   42 1
  42   22   23 ar
  43   22   43 1
  44   23   24 ar
  45   23   44 1
  46   24   25 1
  47   25   45 1
  48   25   46 1
  49   25   47 1
  50   26   48 1
  51   26   49 1
  52   26   50 1

#	End of record

