#	Name: ASD03330790
#	Creating user name:	WinNT
#	Creation time:	15. 06. 2019 20:37

#	Modifying user name:	WinNT
#	Modification time:	15. 06. 2019 20:37

#	Program:	/corina/corina34_cracker 3.40 0067  02.08.2006

@<TRIPOS>MOLECULE
ASD03330790
  57   59    0    0    0
SMALL
NO_CHARGES


@<TRIPOS>ATOM
   1 C1            -0.7115     1.9008    -0.2702 C.2     
   2 N2            -0.9229     0.5605    -0.1795 N.pl3   
   3 C3             0.6297     2.1035    -0.1509 C.2     
   4 N4             1.2183     0.8955    -0.0076 N.2     
   5 C5             0.2945    -0.0368    -0.0294 C.2     
   6 C6             0.5333    -1.4912     0.0897 C.ar    
   7 C7             1.3165     3.4070    -0.1739 C.2     
   8 O8             0.6739     4.4306    -0.3097 O.2     
   9 C9             3.3396     4.7608    -0.0675 C.3     
  10 N10            2.6568     3.4649    -0.0446 N.am    
  11 C11            4.7870     4.5666    -0.5239 C.3     
  12 C12            3.3250     5.3608     1.3149 C.2     
  13 O13            3.2465     4.6408     2.2876 O.2     
  14 C14           -2.2312    -0.0982    -0.2228 C.3     
  15 C15           -3.0405     0.4688    -1.3934 C.3     
  16 C16           -3.8060     1.7074    -0.9393 C.3     
  17 N17           -3.0483     2.4564     0.0651 N.3     
  18 C18           -1.7748     2.9471    -0.4824 C.3     
  19 C19           -0.2339    -2.2573     0.9685 C.ar    
  20 C20           -0.0074    -3.6141     1.0755 C.ar    
  21 C21           -3.8472     3.5617     0.6111 C.3     
  22 N22            3.3993     6.6975     1.4701 N.am    
  23 C23            0.9813    -4.2178     0.3120 C.ar    
  24 C24            4.8027     3.8886    -1.8954 C.3     
  25 C25            5.4784     5.9281    -0.6201 C.3     
  26 C26            5.5273     3.6890     0.4874 C.3     
  27 C27            1.5241    -2.1046    -0.6814 C.ar    
  28 C28            1.7464    -3.4634    -0.5615 C.ar    
  29 F29            1.1987    -5.5467     0.4215 F       
  30 F30            2.2668    -1.3701    -1.5382 F       
  31 Cl31          -0.9612    -4.5678     2.1683 Cl      
  32 H32            2.8271     5.4294    -0.7592 H       
  33 H33            3.1693     2.6485     0.0637 H       
  34 H34           -2.0947    -1.1709    -0.3600 H       
  35 H35           -2.7630     0.0860     0.7107 H       
  36 H36           -2.3643     0.7379    -2.2049 H       
  37 H37           -3.7456    -0.2844    -1.7451 H       
  38 H38           -3.9904     2.3497    -1.8005 H       
  39 H39           -4.7607     1.4011    -0.5119 H       
  40 H40           -1.4885     3.8665     0.0284 H       
  41 H41           -1.8873     3.1412    -1.5491 H       
  42 H42           -1.0034    -1.7887     1.5640 H       
  43 H43           -4.7477     3.1629     1.0783 H       
  44 H44           -3.2606     4.1013     1.3546 H       
  45 H45           -4.1262     4.2409    -0.1945 H       
  46 H46            3.3892     7.2774     0.6926 H       
  47 H47            3.4629     7.0797     2.3594 H       
  48 H48            4.2753     4.5138    -2.6158 H       
  49 H49            5.8338     3.7503    -2.2206 H       
  50 H50            4.3101     2.9187    -1.8268 H       
  51 H51            5.5516     6.3695     0.3738 H       
  52 H52            6.4781     5.7994    -1.0350 H       
  53 H53            4.8981     6.5853    -1.2678 H       
  54 H54            5.0347     2.7191     0.5559 H       
  55 H55            6.5584     3.5507     0.1622 H       
  56 H56            5.5162     4.1721     1.4644 H       
  57 H57            2.5120    -3.9391    -1.1564 H       
@<TRIPOS>BOND
   1    1    2 1
   2    1    3 2
   3    1   18 1
   4    2   14 1
   5    2    5 1
   6    3    4 1
   7    3    7 1
   8    4    5 2
   9    5    6 1
  10    6   27 ar
  11    6   19 ar
  12    7    8 2
  13    7   10 am
  14    9   10 1
  15    9   11 1
  16    9   12 1
  17    9   32 1
  18   10   33 1
  19   11   24 1
  20   11   25 1
  21   11   26 1
  22   12   13 2
  23   12   22 am
  24   14   15 1
  25   14   34 1
  26   14   35 1
  27   15   16 1
  28   15   36 1
  29   15   37 1
  30   16   17 1
  31   16   38 1
  32   16   39 1
  33   17   18 1
  34   17   21 1
  35   18   40 1
  36   18   41 1
  37   19   20 ar
  38   19   42 1
  39   20   31 1
  40   20   23 ar
  41   21   43 1
  42   21   44 1
  43   21   45 1
  44   22   46 1
  45   22   47 1
  46   23   29 1
  47   23   28 ar
  48   24   48 1
  49   24   49 1
  50   24   50 1
  51   25   51 1
  52   25   52 1
  53   25   53 1
  54   26   54 1
  55   26   55 1
  56   26   56 1
  57   27   28 ar
  58   27   30 1
  59   28   57 1

#	End of record

