#	Name: ASD01885404
#	Creating user name:	WinNT
#	Creation time:	15. 06. 2019 19:49

#	Modifying user name:	WinNT
#	Modification time:	15. 06. 2019 19:49

#	Program:	/corina/corina34_cracker 3.40 0067  02.08.2006

@<TRIPOS>MOLECULE
ASD01885404
  28   30    0    0    0
SMALL
NO_CHARGES


@<TRIPOS>ATOM
   1 C1            -0.0168     1.3902     0.0097 C.ar    
   2 C2             0.0021    -0.0041     0.0020 C.ar    
   3 N3            -1.1145    -0.7759     0.0185 N.2     
   4 C4            -2.1893    -0.5675    -0.6487 C.2     
   5 C5            -2.3483     0.6312    -1.5461 C.3     
   6 C6            -2.2773     1.8708    -0.6904 C.2     
   7 N7            -1.1816     2.1455     0.0184 N.am    
   8 C8             1.1909     2.0901     0.0019 C.ar    
   9 C9             2.3952     1.4191    -0.0179 C.ar    
  10 C10            2.4180     0.0327    -0.0303 C.ar    
  11 C11            1.2379    -0.6744    -0.0204 C.ar    
  12 C12           -3.3011    -1.5282    -0.5337 C.ar    
  13 C13           -3.2009    -2.6604     0.2902 C.ar    
  14 C14           -4.2869    -3.5159     0.3457 C.ar    
  15 N15           -5.3698    -3.2544    -0.3619 N.ar    
  16 N16           -5.4694    -2.2224    -1.1170 N.ar    
  17 C17           -4.4975    -1.3407    -1.2383 C.ar    
  18 O18           -3.2255     2.6258    -0.6470 O.2     
  19 Br19           4.0176     2.3905    -0.0287 Br      
  20 Br20           4.0706    -0.8858    -0.0609 Br      
  21 H21           -1.5464     0.6472    -2.2842 H       
  22 H22           -3.3132     0.5874    -2.0511 H       
  23 H23           -1.2001     2.9334     0.5839 H       
  24 H24            1.1819     3.1700     0.0112 H       
  25 H25            1.2609    -1.7541    -0.0299 H       
  26 H26           -2.3057    -2.8573     0.8615 H       
  27 H27           -4.2483    -4.3979     0.9677 H       
  28 H28           -4.6188    -0.4838    -1.8844 H       
@<TRIPOS>BOND
   1    1    2 ar
   2    1    8 ar
   3    1    7 1
   4    2    3 1
   5    2   11 ar
   6    3    4 2
   7    4    5 1
   8    4   12 1
   9    5    6 1
  10    5   21 1
  11    5   22 1
  12    6    7 am
  13    6   18 2
  14    7   23 1
  15    8    9 ar
  16    8   24 1
  17    9   10 ar
  18    9   19 1
  19   10   11 ar
  20   10   20 1
  21   11   25 1
  22   12   13 ar
  23   12   17 ar
  24   13   14 ar
  25   13   26 1
  26   14   15 ar
  27   14   27 1
  28   15   16 ar
  29   16   17 ar
  30   17   28 1

#	End of record

