#	Name: ASD03082214
#	Creating user name:	WinNT
#	Creation time:	15. 06. 2019 20:27

#	Modifying user name:	WinNT
#	Modification time:	15. 06. 2019 20:27

#	Program:	/corina/corina34_cracker 3.40 0067  02.08.2006

@<TRIPOS>MOLECULE
ASD03082214
  46   49    0    0    0
SMALL
NO_CHARGES


@<TRIPOS>ATOM
   1 N1             0.3975     1.5359     0.4169 N.pl3   
   2 N2             0.0701     0.1783     0.2702 N.2     
   3 C3             1.1947    -0.4661     0.0598 C.2     
   4 N4             2.2040     0.4065     0.0661 N.2     
   5 C5             1.7397     1.6213     0.2807 C.2     
   6 N6             1.3151    -1.8430    -0.1380 N.pl3   
   7 C7             2.5731    -2.4090    -0.3692 C.ar    
   8 C8             2.6858    -3.5686    -1.1256 C.ar    
   9 C9             3.9288    -4.1254    -1.3529 C.ar    
  10 C10            5.0626    -3.5288    -0.8270 C.ar    
  11 C11            4.9527    -2.3732    -0.0725 C.ar    
  12 C12            3.7119    -1.8093     0.1523 C.ar    
  13 C13            4.0517    -5.3835    -2.1735 C.3     
  14 F14            2.7811    -5.7939    -2.5909 F       
  15 F15            4.8523    -5.1336    -3.2932 F       
  16 F16            4.6358    -6.3908    -1.3980 F       
  17 N17            4.6166     3.9079     0.7599 N.ar    
  18 C18            3.8991     2.8058     0.6912 C.ar    
  19 C19            2.5454     2.8600     0.3583 C.ar    
  20 C20            1.9625     4.1050     0.0986 C.ar    
  21 C21            2.7597     5.2333     0.1841 C.ar    
  22 C22            4.0940     5.0954     0.5203 C.ar    
  23 C23           -0.5319     2.6414     0.6625 C.3     
  24 C24           -1.1727     3.0720    -0.6584 C.3     
  25 F25            6.2777    -4.0755    -1.0503 F       
  26 O26           -1.5507     2.2147     1.5692 O.3     
  27 C27            4.9652     6.3214     0.6149 C.3     
  28 C28            4.9639     7.0885     1.9388 C.3     
  29 C29            4.2662     7.6790     0.7118 C.3     
  30 H30            0.5263    -2.4070    -0.1152 H       
  31 H31            1.8018    -4.0346    -1.5353 H       
  32 H32            5.8381    -1.9100     0.3373 H       
  33 H33            3.6271    -0.9052     0.7370 H       
  34 H34            4.3627     1.8516     0.8939 H       
  35 H35            0.9175     4.1836    -0.1623 H       
  36 H36            2.3441     6.2110    -0.0100 H       
  37 H37            0.0100     3.4826     1.0947 H       
  38 H38           -1.7146     2.2309    -1.0906 H       
  39 H39           -1.8642     3.8945    -0.4757 H       
  40 H40           -0.3956     3.3975    -1.3501 H       
  41 H41           -2.0743     1.4674     1.2491 H       
  42 H42            5.9026     6.2760     0.0605 H       
  43 H43            4.3330     6.7063     2.7412 H       
  44 H44            5.9003     7.5481     2.2550 H       
  45 H45            4.7436     8.5270     0.2209 H       
  46 H46            3.1762     7.6853     0.7071 H       
@<TRIPOS>BOND
   1    1    2 1
   2    1    5 1
   3    1   23 1
   4    2    3 2
   5    3    4 1
   6    3    6 1
   7    4    5 2
   8    5   19 1
   9    6    7 1
  10    6   30 1
  11    7    8 ar
  12    7   12 ar
  13    8    9 ar
  14    8   31 1
  15    9   10 ar
  16    9   13 1
  17   10   11 ar
  18   10   25 1
  19   11   12 ar
  20   11   32 1
  21   12   33 1
  22   13   14 1
  23   13   15 1
  24   13   16 1
  25   17   18 ar
  26   17   22 ar
  27   18   19 ar
  28   18   34 1
  29   19   20 ar
  30   20   21 ar
  31   20   35 1
  32   21   22 ar
  33   21   36 1
  34   22   27 1
  35   23   24 1
  36   23   26 1
  37   23   37 1
  38   24   38 1
  39   24   39 1
  40   24   40 1
  41   26   41 1
  42   27   28 1
  43   27   29 1
  44   27   42 1
  45   28   29 1
  46   28   43 1
  47   28   44 1
  48   29   45 1
  49   29   46 1

#	End of record

