#	Name: ASD01811297
#	Creating user name:	WinNT
#	Creation time:	15. 06. 2019 19:26

#	Modifying user name:	WinNT
#	Modification time:	15. 06. 2019 19:26

#	Program:	/corina/corina34_cracker 3.40 0067  02.08.2006

@<TRIPOS>MOLECULE
ASD01811297
  63   68    0    0    0
SMALL
NO_CHARGES


@<TRIPOS>ATOM
   1 C1            -0.0168     1.3879     0.0097 C.ar    
   2 C2             0.0021    -0.0041     0.0020 C.ar    
   3 N3            -1.3016    -0.5047     0.0107 N.am    
   4 C4            -2.2230     0.4777     0.0248 C.2     
   5 C5            -1.4674     1.7787     0.0317 C.3     
   6 C6            -1.8131     2.6229     1.2611 C.3     
   7 N7            -2.3153     3.9226     0.7574 N.3     
   8 C8            -2.8450     3.6530    -0.6048 C.3     
   9 C9            -1.8280     2.6381    -1.1902 C.3     
  10 C10           -3.3658     4.4568     1.6345 C.3     
  11 C11           -2.8012     4.6618     3.0427 C.3     
  12 O12           -3.8078     5.2354     3.8792 O.3     
  13 C13           -4.2688     6.5158     3.4432 C.3     
  14 C14           -4.8924     6.3852     2.0512 C.3     
  15 C15           -3.8542     5.8017     1.0879 C.3     
  16 C16            1.1581     2.1052     0.0023 C.ar    
  17 C17            2.3736     1.4435    -0.0123 C.ar    
  18 C18            2.4045     0.0613    -0.0192 C.ar    
  19 C19            1.2294    -0.6618    -0.0115 C.ar    
  20 O20           -3.4280     0.3402     0.0340 O.2     
  21 C21           -1.6291    -1.9326     0.0046 C.3     
  22 C22           -1.7291    -2.4311     1.4233 C.ar    
  23 C23           -2.8834    -2.2039     2.1554 C.ar    
  24 C24           -2.9791    -2.6599     3.4568 C.ar    
  25 C25           -1.9127    -3.3482     4.0305 C.ar    
  26 C26           -0.7552    -3.5733     3.2891 C.ar    
  27 C27           -0.6710    -3.1186     1.9883 C.ar    
  28 F28           -3.9161    -1.5356     1.5968 F       
  29 C29           -2.0094    -3.8401     5.4281 C.2     
  30 C30           -3.1122    -3.6854     6.2904 C.2     
  31 N31           -2.8182    -4.2515     7.4309 N.2     
  32 N32           -1.5270    -4.7855     7.3427 N.pl3   
  33 C33           -1.0484    -4.5293     6.1085 C.2     
  34 C34           -0.8200    -5.5037     8.4060 C.3     
  35 H35           -2.5855     2.1270     1.8489 H       
  36 H36           -0.9223     2.7778     1.8698 H       
  37 H37           -3.8401     3.2116    -0.5497 H       
  38 H38           -2.8612     4.5668    -1.1987 H       
  39 H39           -0.9470     3.1520    -1.5748 H       
  40 H40           -2.2920     2.0302    -1.9669 H       
  41 H41           -4.1986     3.7547     1.6747 H       
  42 H42           -2.4912     3.7009     3.4535 H       
  43 H43           -1.9424     5.3314     2.9960 H       
  44 H44           -5.0162     6.8905     4.1426 H       
  45 H45           -3.4292     7.2097     3.4018 H       
  46 H46           -5.7568     5.7230     2.0999 H       
  47 H47           -5.2048     7.3681     1.6983 H       
  48 H48           -3.0115     6.4876     1.0007 H       
  49 H49           -4.3084     5.6538     0.1081 H       
  50 H50            1.1314     3.1849     0.0076 H       
  51 H51            3.2958     2.0055    -0.0187 H       
  52 H52            3.3530    -0.4550    -0.0306 H       
  53 H53            1.2616    -1.7413    -0.0169 H       
  54 H54           -2.5822    -2.0847    -0.5019 H       
  55 H55           -0.8473    -2.4824    -0.5194 H       
  56 H56           -3.8786    -2.4826     4.0276 H       
  57 H57            0.0741    -4.1063     3.7302 H       
  58 H58            0.2264    -3.2934     1.4134 H       
  59 H59           -4.0391    -3.1855     6.0510 H       
  60 H60           -0.0776    -4.8125     5.7294 H       
  61 H61           -1.0347    -6.5696     8.3294 H       
  62 H62            0.2529    -5.3409     8.3032 H       
  63 H63           -1.1522    -5.1350     9.3765 H       
@<TRIPOS>BOND
   1    1    2 ar
   2    1   16 ar
   3    1    5 1
   4    2    3 1
   5    2   19 ar
   6    3    4 am
   7    3   21 1
   8    4    5 1
   9    4   20 2
  10    5    6 1
  11    5    9 1
  12    6    7 1
  13    6   35 1
  14    6   36 1
  15    7    8 1
  16    7   10 1
  17    8    9 1
  18    8   37 1
  19    8   38 1
  20    9   39 1
  21    9   40 1
  22   10   11 1
  23   10   15 1
  24   10   41 1
  25   11   12 1
  26   11   42 1
  27   11   43 1
  28   12   13 1
  29   13   14 1
  30   13   44 1
  31   13   45 1
  32   14   15 1
  33   14   46 1
  34   14   47 1
  35   15   48 1
  36   15   49 1
  37   16   17 ar
  38   16   50 1
  39   17   18 ar
  40   17   51 1
  41   18   19 ar
  42   18   52 1
  43   19   53 1
  44   21   22 1
  45   21   54 1
  46   21   55 1
  47   22   23 ar
  48   22   27 ar
  49   23   24 ar
  50   23   28 1
  51   24   25 ar
  52   24   56 1
  53   25   26 ar
  54   25   29 1
  55   26   27 ar
  56   26   57 1
  57   27   58 1
  58   29   30 1
  59   29   33 2
  60   30   31 2
  61   30   59 1
  62   31   32 1
  63   32   33 1
  64   32   34 1
  65   33   60 1
  66   34   61 1
  67   34   62 1
  68   34   63 1

#	End of record

