#	Name: ASD01840155
#	Creating user name:	WinNT
#	Creation time:	15. 06. 2019 19:37

#	Modifying user name:	WinNT
#	Modification time:	15. 06. 2019 19:37

#	Program:	/corina/corina34_cracker 3.40 0067  02.08.2006

@<TRIPOS>MOLECULE
ASD01840155
  48   51    0    0    0
SMALL
NO_CHARGES


@<TRIPOS>ATOM
   1 C1             0.9647     0.1366     3.6522 C.ar    
   2 C2             1.2871    -1.1878     3.9377 C.ar    
   3 N3             2.4740    -1.6811     3.6771 N.ar    
   4 C4             3.4324    -0.9329     3.1229 C.ar    
   5 C5             3.1710     0.4242     2.8060 C.ar    
   6 C6             1.8976     0.9578     3.0849 C.ar    
   7 C7             1.5730     2.3943     2.7655 C.3     
   8 C8             0.2444    -2.0778     4.5634 C.3     
   9 C9             4.7025    -1.4743     2.8487 C.ar    
  10 C10            5.6653    -0.7009     2.2864 C.ar    
  11 C11            5.4162     0.6462     1.9686 C.ar    
  12 C12            4.1767     1.2095     2.2255 C.ar    
  13 C13            6.4829     1.4659     1.3573 C.2     
  14 N14            7.6902     0.9221     1.1057 N.am    
  15 O15            6.2715     2.6308     1.0812 O.2     
  16 C16            8.7477     1.7348     0.4996 C.3     
  17 C17           10.1696     1.2366     0.8151 C.3     
  18 C18            9.0499     1.3666    -0.9642 C.3     
  19 N19           10.4769     1.5192    -0.6044 N.3     
  20 C20           11.2435     0.4999    -1.1612 C.ar    
  21 C21           12.5163     0.7579    -1.6693 C.ar    
  22 C22           13.2438    -0.2801    -2.2129 C.ar    
  23 N23           12.7495    -1.5031    -2.2559 N.ar    
  24 C24           11.5493    -1.7875    -1.7856 C.ar    
  25 C25           10.7610    -0.8076    -1.2205 C.ar    
  26 C26           14.6205    -0.0143    -2.7653 C.3     
  27 F27           15.5703    -0.1849    -1.7524 F       
  28 F28           14.8851    -0.9085    -3.8082 F       
  29 F29           14.6840     1.2972    -3.2481 F       
  30 H30           -0.0229     0.5128     3.8748 H       
  31 H31            1.1724     2.4600     1.7539 H       
  32 H32            0.8328     2.7658     3.4742 H       
  33 H33            2.4789     2.9961     2.8374 H       
  34 H34           -0.3291    -2.5724     3.7794 H       
  35 H35            0.7328    -2.8285     5.1848 H       
  36 H36           -0.4249    -1.4764     5.1787 H       
  37 H37            4.9111    -2.5070     3.0865 H       
  38 H38            6.6366    -1.1258     2.0802 H       
  39 H39            3.9871     2.2441     1.9808 H       
  40 H40            7.8588    -0.0074     1.3260 H       
  41 H41            8.6103     2.8033     0.6656 H       
  42 H42           10.7117     1.8709     1.5165 H       
  43 H43           10.2173     0.1785     1.0725 H       
  44 H44            8.7700     0.3466    -1.2273 H       
  45 H45            8.6973     2.1048    -1.6845 H       
  46 H46           12.9264     1.7565    -1.6379 H       
  47 H47           11.1819    -2.8017    -1.8401 H       
  48 H48            9.7799    -1.0471    -0.8377 H       
@<TRIPOS>BOND
   1    1    2 ar
   2    1    6 ar
   3    1   30 1
   4    2    3 ar
   5    2    8 1
   6    3    4 ar
   7    4    5 ar
   8    4    9 ar
   9    5    6 ar
  10    5   12 ar
  11    6    7 1
  12    7   31 1
  13    7   32 1
  14    7   33 1
  15    8   34 1
  16    8   35 1
  17    8   36 1
  18    9   10 ar
  19    9   37 1
  20   10   11 ar
  21   10   38 1
  22   11   12 ar
  23   11   13 1
  24   12   39 1
  25   13   14 am
  26   13   15 2
  27   14   16 1
  28   14   40 1
  29   16   17 1
  30   16   18 1
  31   16   41 1
  32   17   19 1
  33   17   42 1
  34   17   43 1
  35   18   19 1
  36   18   44 1
  37   18   45 1
  38   19   20 1
  39   20   21 ar
  40   20   25 ar
  41   21   22 ar
  42   21   46 1
  43   22   26 1
  44   22   23 ar
  45   23   24 ar
  46   24   25 ar
  47   24   47 1
  48   25   48 1
  49   26   27 1
  50   26   28 1
  51   26   29 1

#	End of record

