#	Name: ASD03730274
#	Creating user name:	WinNT
#	Creation time:	15. 06. 2019 20:44

#	Modifying user name:	WinNT
#	Modification time:	15. 06. 2019 20:44

#	Program:	/corina/corina34_cracker 3.40 0067  02.08.2006

@<TRIPOS>MOLECULE
ASD03730274
  57   62    0    0    0
SMALL
NO_CHARGES


@<TRIPOS>ATOM
   1 N1            -0.3001     0.9225     4.7206 N.3     
   2 C2            -0.0787    -0.5294     4.9170 C.3     
   3 O3             0.4162    -0.9673     3.6387 O.3     
   4 C4             1.0300     0.1100     3.0678 C.ar    
   5 C5             0.6070     1.2768     3.7030 C.ar    
   6 C6             1.9435     0.1870     2.0300 C.ar    
   7 C7             2.4366     1.4189     1.6115 C.ar    
   8 C8             1.9917     2.5767     2.2424 C.ar    
   9 C9             1.0890     2.5056     3.2831 C.ar    
  10 O10            3.3472     1.7070     0.6372 O.3     
  11 C11            2.6668     3.7301     1.5504 C.3     
  12 C12            3.2269     3.0946     0.2702 C.3     
  13 N13            2.2075     5.9499     1.8407 N.am    
  14 C14            1.7112     4.8478     1.2443 C.2     
  15 C15            3.7463     4.3488     2.3873 C.ar    
  16 C16            4.9007     3.8572     2.9815 C.ar    
  17 C17            5.7202     4.7127     3.7174 C.ar    
  18 C18            5.3768     6.0435     3.8496 C.ar    
  19 C19            4.2295     6.5319     3.2581 C.ar    
  20 C20            3.4006     5.6891     2.5198 C.ar    
  21 O21            0.6933     4.7733     0.5890 O.2     
  22 C22           -0.0238     1.6689     5.9554 C.3     
  23 C23            1.4799     1.6499     6.2371 C.3     
  24 C24            1.7677     2.4273     7.5231 C.3     
  25 C25            3.2714     2.4084     7.8049 C.3     
  26 C26            3.5591     3.1857     9.0909 C.3     
  27 C27            5.2613     2.4257     2.8344 C.ar    
  28 C28            4.8706     1.5118     3.8098 C.ar    
  29 C29            5.2137     0.1786     3.6604 C.ar    
  30 C30            5.9372    -0.1977     2.5389 C.ar    
  31 C31            6.2937     0.7638     1.6066 C.ar    
  32 N32            5.9486     2.0264     1.7718 N.ar    
  33 F33            6.9990     0.4027     0.5124 F       
  34 H34            0.6636    -0.7029     5.6962 H       
  35 H35           -1.0154    -1.0316     5.1588 H       
  36 H36            2.2764    -0.7169     1.5416 H       
  37 H37            0.7576     3.4100     3.7717 H       
  38 H38            4.2016     3.5156     0.0236 H       
  39 H39            2.5303     3.2167    -0.5592 H       
  40 H40            1.7855     6.8225     1.8032 H       
  41 H41            6.6192     4.3358     4.1822 H       
  42 H42            6.0105     6.7069     4.4195 H       
  43 H43            3.9718     7.5749     3.3688 H       
  44 H44           -0.3588     2.6997     5.8395 H       
  45 H45           -0.5551     1.2055     6.7867 H       
  46 H46            1.8149     0.6192     6.3530 H       
  47 H47            2.0112     2.1134     5.4058 H       
  48 H48            1.4327     3.4581     7.4072 H       
  49 H49            1.2364     1.9639     8.3544 H       
  50 H50            3.6063     1.3776     7.9208 H       
  51 H51            3.8027     2.8718     6.9736 H       
  52 H52            4.6304     3.1722     9.2916 H       
  53 H53            3.2242     4.2165     8.9750 H       
  54 H54            3.0278     2.7223     9.9222 H       
  55 H55            4.3078     1.8386     4.6716 H       
  56 H56            4.9244    -0.5521     4.4012 H       
  57 H57            6.2204    -1.2297     2.3936 H       
@<TRIPOS>BOND
   1    1    2 1
   2    1    5 1
   3    1   22 1
   4    2    3 1
   5    2   34 1
   6    2   35 1
   7    3    4 1
   8    4    5 ar
   9    4    6 ar
  10    5    9 ar
  11    6    7 ar
  12    6   36 1
  13    7    8 ar
  14    7   10 1
  15    8    9 ar
  16    8   11 1
  17    9   37 1
  18   10   12 1
  19   11   12 1
  20   11   14 1
  21   11   15 1
  22   12   38 1
  23   12   39 1
  24   13   14 am
  25   13   20 1
  26   13   40 1
  27   14   21 2
  28   15   16 ar
  29   15   20 ar
  30   16   17 ar
  31   16   27 1
  32   17   18 ar
  33   17   41 1
  34   18   19 ar
  35   18   42 1
  36   19   20 ar
  37   19   43 1
  38   22   23 1
  39   22   44 1
  40   22   45 1
  41   23   24 1
  42   23   46 1
  43   23   47 1
  44   24   25 1
  45   24   48 1
  46   24   49 1
  47   25   26 1
  48   25   50 1
  49   25   51 1
  50   26   52 1
  51   26   53 1
  52   26   54 1
  53   27   28 ar
  54   27   32 ar
  55   28   29 ar
  56   28   55 1
  57   29   30 ar
  58   29   56 1
  59   30   31 ar
  60   30   57 1
  61   31   32 ar
  62   31   33 1

#	End of record

