#	Name: ASD04880927
#	Creating user name:	WinNT
#	Creation time:	15. 06. 2019 20:53

#	Modifying user name:	WinNT
#	Modification time:	15. 06. 2019 20:53

#	Program:	/corina/corina34_cracker 3.40 0067  02.08.2006

@<TRIPOS>MOLECULE
ASD04880927
  70   74    0    0    0
SMALL
NO_CHARGES


@<TRIPOS>ATOM
   1 N1             1.6884     0.3342     1.6091 N.3     
   2 C2             2.2133     1.4203     0.7698 C.3     
   3 C3             3.0421     0.8249    -0.3708 C.3     
   4 N4             2.2017    -0.0871    -1.1593 N.3     
   5 C5             1.6768    -1.1731    -0.3200 C.3     
   6 C6             0.8480    -0.5777     0.8206 C.3     
   7 C7             2.9028    -0.5939    -2.2504 C.ar    
   8 C8             3.2097    -1.9481    -2.3098 C.ar    
   9 C9             3.9035    -2.4538    -3.3872 C.ar    
  10 C10            4.3010    -1.6057    -4.4241 C.ar    
  11 C11            3.9932    -0.2431    -4.3671 C.ar    
  12 C12            3.2921     0.2591    -3.2874 C.ar    
  13 N13            2.9768     1.6228    -3.2293 N.am    
  14 C14            5.0449    -2.1473    -5.5773 C.2     
  15 C15            3.8309     2.5342    -3.7355 C.2     
  16 O16            4.8348     2.1692    -4.3189 O.2     
  17 C17            3.5508     3.9654    -3.5834 C.2     
  18 O18            2.4803     4.5020    -2.9619 O.3     
  19 C19            2.5577     5.8380    -3.0171 C.2     
  20 C20            3.6850     6.1813    -3.6784 C.2     
  21 C21            4.3307     4.9888    -4.0408 C.2     
  22 C22            0.9851     0.8426     2.7036 C.ar    
  23 C23           -0.3872     0.6486     2.8004 C.ar    
  24 C24           -1.0793     1.1522     3.8840 C.ar    
  25 C25           -0.4080     1.8495     4.8720 C.ar    
  26 C26            0.9577     2.0443     4.7787 C.ar    
  27 C27            1.6570     1.5384     3.7004 C.ar    
  28 C28            3.1465     1.7459     3.6026 C.3     
  29 N29            5.3415    -3.4609    -5.6311 N.am    
  30 O30            5.3904    -1.4086    -6.4792 O.2     
  31 C31            6.0802    -3.9988    -6.7762 C.3     
  32 C32            1.5526     6.8000    -2.4379 C.3     
  33 C33            6.2840    -5.5037    -6.5904 C.3     
  34 C34            7.0439    -6.0569    -7.7683 C.2     
  35 N35            6.6976    -5.9332    -9.0582 N.2     
  36 C36            7.5852    -6.5350    -9.8018 C.2     
  37 N37            8.5335    -7.0658    -9.0001 N.pl3   
  38 C38            8.1927    -6.7573    -7.7107 C.2     
  39 H39            1.3837     1.9933     0.3557 H       
  40 H40            2.8424     2.0747     1.3732 H       
  41 H41            3.4085     1.6271    -1.0114 H       
  42 H42            3.8873     0.2745     0.0426 H       
  43 H43            1.0477    -1.8275    -0.9234 H       
  44 H44            2.5064    -1.7462     0.0941 H       
  45 H45            0.4816    -1.3800     1.4612 H       
  46 H46            0.0028    -0.0274     0.4072 H       
  47 H47            2.9038    -2.6055    -1.5093 H       
  48 H48            4.1408    -3.5065    -3.4302 H       
  49 H49            4.2995     0.4148    -5.1669 H       
  50 H50            2.1437     1.9111    -2.8246 H       
  51 H51            4.0267     7.1845    -3.8861 H       
  52 H52            5.2626     4.8982    -4.5791 H       
  53 H53           -0.9121     0.1049     2.0290 H       
  54 H54           -2.1460     1.0017     3.9599 H       
  55 H55           -0.9518     2.2429     5.7181 H       
  56 H56            1.4788     2.5893     5.5519 H       
  57 H57            3.3491     2.7163     3.1495 H       
  58 H58            3.5842     1.7122     4.6003 H       
  59 H59            3.5833     0.9593     2.9874 H       
  60 H60            5.0659    -4.0503    -4.9116 H       
  61 H61            5.5146    -3.8189    -7.6904 H       
  62 H62            7.0503    -3.5067    -6.8464 H       
  63 H63            0.7465     6.2409    -1.9628 H       
  64 H64            2.0409     7.4335    -1.6974 H       
  65 H65            1.1434     7.4214    -3.2345 H       
  66 H66            6.8496    -5.6836    -5.6762 H       
  67 H67            5.3139    -5.9958    -6.5202 H       
  68 H68            7.5646    -6.5984   -10.8797 H       
  69 H69            9.3125    -7.5687    -9.2849 H       
  70 H70            8.7391    -7.0256    -6.8186 H       
@<TRIPOS>BOND
   1    1    2 1
   2    1    6 1
   3    1   22 1
   4    2    3 1
   5    2   39 1
   6    2   40 1
   7    3    4 1
   8    3   41 1
   9    3   42 1
  10    4    5 1
  11    4    7 1
  12    5    6 1
  13    5   43 1
  14    5   44 1
  15    6   45 1
  16    6   46 1
  17    7    8 ar
  18    7   12 ar
  19    8    9 ar
  20    8   47 1
  21    9   10 ar
  22    9   48 1
  23   10   11 ar
  24   10   14 1
  25   11   12 ar
  26   11   49 1
  27   12   13 1
  28   13   15 am
  29   13   50 1
  30   14   29 am
  31   14   30 2
  32   15   16 2
  33   15   17 1
  34   17   18 1
  35   17   21 2
  36   18   19 1
  37   19   20 2
  38   19   32 1
  39   20   21 1
  40   20   51 1
  41   21   52 1
  42   22   23 ar
  43   22   27 ar
  44   23   24 ar
  45   23   53 1
  46   24   25 ar
  47   24   54 1
  48   25   26 ar
  49   25   55 1
  50   26   27 ar
  51   26   56 1
  52   27   28 1
  53   28   57 1
  54   28   58 1
  55   28   59 1
  56   29   31 1
  57   29   60 1
  58   31   33 1
  59   31   61 1
  60   31   62 1
  61   32   63 1
  62   32   64 1
  63   32   65 1
  64   33   34 1
  65   33   66 1
  66   33   67 1
  67   34   35 1
  68   34   38 2
  69   35   36 2
  70   36   37 1
  71   36   68 1
  72   37   38 1
  73   37   69 1
  74   38   70 1

#	End of record

