#	Name: ASD01882643
#	Creating user name:	WinNT
#	Creation time:	15. 06. 2019 19:44

#	Modifying user name:	WinNT
#	Modification time:	15. 06. 2019 19:44

#	Program:	/corina/corina34_cracker 3.40 0067  02.08.2006

@<TRIPOS>MOLECULE
ASD01882643
  47   50    0    0    0
SMALL
NO_CHARGES


@<TRIPOS>ATOM
   1 C1             0.4003     2.8565     0.8637 C.2     
   2 N2             0.7641     1.5819     0.9089 N.2     
   3 C3             2.0419     1.2271     1.0790 C.2     
   4 C4             3.0355     2.2295     1.2149 C.2     
   5 C5             2.6531     3.5228     1.1673 C.2     
   6 N6             1.3329     3.8298     0.9913 N.pl3   
   7 O7            -0.8456     3.3498     0.6927 O.3     
   8 C8             0.6744     5.1444     0.9069 C.3     
   9 C9            -0.8118     4.8024     0.7035 C.3     
  10 O10            2.3515     0.0462     1.1176 O.2     
  11 C11           -1.3075     5.3594    -0.6324 C.3     
  12 O12           -2.6948     5.0553    -0.7900 O.3     
  13 C13           -3.2947     5.4829    -1.9330 C.ar    
  14 C14           -4.6394     5.2216    -2.1502 C.ar    
  15 C15           -5.2487     5.6560    -3.3112 C.ar    
  16 C16           -4.5158     6.3539    -4.2597 C.ar    
  17 C17           -3.1713     6.6160    -4.0422 C.ar    
  18 C18           -2.5631     6.1854    -2.8791 C.ar    
  19 O19           -5.1154     6.7807    -5.4032 O.3     
  20 C20           -4.2765     7.3875    -6.3881 C.3     
  21 C21           -4.9178     7.2341    -7.7687 C.3     
  22 C22           -4.0196     7.8837    -8.8233 C.3     
  23 C23           -3.8491     9.3699    -8.5024 C.3     
  24 C24           -3.2078     9.5233    -7.1218 C.3     
  25 C25           -4.1060     8.8737    -6.0672 C.3     
  26 H26            4.0732     1.9644     1.3534 H       
  27 H27            3.3854     4.3101     1.2679 H       
  28 H28            0.8169     5.7036     1.8316 H       
  29 H29            1.0548     5.7086     0.0553 H       
  30 H30           -1.4116     5.1917     1.5262 H       
  31 H31           -1.1683     6.4404    -0.6495 H       
  32 H32           -0.7416     4.9073    -1.4470 H       
  33 H33           -5.2100     4.6782    -1.4116 H       
  34 H34           -6.2956     5.4519    -3.4806 H       
  35 H35           -2.6006     7.1591    -4.7809 H       
  36 H36           -1.5171     6.3927    -2.7081 H       
  37 H37           -3.3012     6.9007    -6.3844 H       
  38 H38           -5.0393     6.1753    -7.9973 H       
  39 H39           -5.8931     7.7208    -7.7724 H       
  40 H40           -3.0443     7.3970    -8.8196 H       
  41 H41           -4.4765     7.7745    -9.8069 H       
  42 H42           -3.2092     9.8328    -9.2537 H       
  43 H43           -4.8244     9.8567    -8.5061 H       
  44 H44           -2.2325     9.0366    -7.1181 H       
  45 H45           -3.0863    10.5821    -6.8932 H       
  46 H46           -5.0813     9.3604    -6.0709 H       
  47 H47           -3.6491     8.9830    -5.0837 H       
@<TRIPOS>BOND
   1    1    2 2
   2    1    6 1
   3    1    7 1
   4    2    3 1
   5    3    4 1
   6    3   10 2
   7    4    5 2
   8    4   26 1
   9    5    6 1
  10    5   27 1
  11    6    8 1
  12    7    9 1
  13    8    9 1
  14    8   28 1
  15    8   29 1
  16    9   11 1
  17    9   30 1
  18   11   12 1
  19   11   31 1
  20   11   32 1
  21   12   13 1
  22   13   14 ar
  23   13   18 ar
  24   14   15 ar
  25   14   33 1
  26   15   16 ar
  27   15   34 1
  28   16   17 ar
  29   16   19 1
  30   17   18 ar
  31   17   35 1
  32   18   36 1
  33   19   20 1
  34   20   21 1
  35   20   25 1
  36   20   37 1
  37   21   22 1
  38   21   38 1
  39   21   39 1
  40   22   23 1
  41   22   40 1
  42   22   41 1
  43   23   24 1
  44   23   42 1
  45   23   43 1
  46   24   25 1
  47   24   44 1
  48   24   45 1
  49   25   46 1
  50   25   47 1

#	End of record

