#	Name: ASD02030262
#	Creating user name:	WinNT
#	Creation time:	15. 06. 2019 20:14

#	Modifying user name:	WinNT
#	Modification time:	15. 06. 2019 20:14

#	Program:	/corina/corina34_cracker 3.40 0067  02.08.2006

@<TRIPOS>MOLECULE
ASD02030262
  52   55    0    0    0
SMALL
NO_CHARGES


@<TRIPOS>ATOM
   1 N1             0.1784     1.9899    -0.1937 N.am    
   2 C2             0.4634     0.5508    -0.2805 C.3     
   3 C3            -0.2140    -0.1550     0.9007 C.3     
   4 N4            -1.6139     0.2868     0.9716 N.am    
   5 C5            -1.8989     1.7259     1.0583 C.3     
   6 C6            -1.2213     2.4314    -0.1172 C.3     
   7 C7             1.1829     2.8884    -0.1790 C.2     
   8 C8             2.5857     2.4278    -0.1053 C.2     
   9 N9             3.6556     3.1832    -0.2288 N.2     
  10 N10            2.9932     1.1627     0.1057 N.2     
  11 C11            4.3019     1.1700     0.1020 C.2     
  12 N12            4.7019     2.4409    -0.1084 N.pl3   
  13 C13            6.0308     2.8795    -0.1841 C.ar    
  14 O14            0.9353     4.0776    -0.2263 O.2     
  15 C15           -2.6184    -0.6117     0.9569 C.2     
  16 C16           -2.3267    -2.0337     0.7548 C.2     
  17 O17           -3.7677    -0.2423     1.1114 O.2     
  18 C18            6.3087     4.2215    -0.4058 C.ar    
  19 C19            7.6196     4.6508    -0.4800 C.ar    
  20 C20            8.6543     3.7455    -0.3337 C.ar    
  21 C21            8.3806     2.4079    -0.1132 C.ar    
  22 C22            7.0722     1.9736    -0.0319 C.ar    
  23 C23            7.9222     6.1073    -0.7211 C.3     
  24 O24           -1.0987    -2.5910     0.6980 O.3     
  25 C25           -1.3467     2.2804     2.3731 C.3     
  26 C26           -3.2501    -3.0278     0.5968 C.2     
  27 C27           -2.5333    -4.2226     0.4340 C.2     
  28 C28           -1.2184    -3.9107     0.5026 C.2     
  29 C29           -3.1180    -5.5960     0.2267 C.3     
  30 Br30           0.2138    -5.1356     0.3466 Br      
  31 H31            0.0700     0.1558    -1.2171 H       
  32 H32            1.5402     0.3877    -0.2353 H       
  33 H33           -0.1781    -1.2342     0.7515 H       
  34 H34            0.2993     0.1061     1.8261 H       
  35 H35           -2.9757     1.8890     1.0132 H       
  36 H36           -1.2579     3.5103     0.0333 H       
  37 H37           -1.7326     2.1712    -1.0440 H       
  38 H38            4.9449     0.3140     0.2440 H       
  39 H39            5.5009     4.9291    -0.5205 H       
  40 H40            9.6784     4.0835    -0.3921 H       
  41 H41            9.1910     1.7030    -0.0000 H       
  42 H42            6.8591     0.9289     0.1403 H       
  43 H43            7.9977     6.6258     0.2347 H       
  44 H44            8.8657     6.1981    -1.2593 H       
  45 H45            7.1220     6.5514    -1.3131 H       
  46 H46           -0.2690     2.1218     2.4102 H       
  47 H47           -1.5593     3.3476     2.4351 H       
  48 H48           -1.8186     1.7667     3.2107 H       
  49 H49           -4.3242    -2.9157     0.5975 H       
  50 H50           -3.2444    -5.7798    -0.8403 H       
  51 H51           -2.4460    -6.3442     0.6471 H       
  52 H52           -4.0864    -5.6574     0.7232 H       
@<TRIPOS>BOND
   1    1    2 1
   2    1    7 am
   3    1    6 1
   4    2    3 1
   5    2   31 1
   6    2   32 1
   7    3    4 1
   8    3   33 1
   9    3   34 1
  10    4    5 1
  11    4   15 am
  12    5    6 1
  13    5   25 1
  14    5   35 1
  15    6   36 1
  16    6   37 1
  17    7    8 1
  18    7   14 2
  19    8    9 2
  20    8   10 1
  21    9   12 1
  22   10   11 2
  23   11   12 1
  24   11   38 1
  25   12   13 1
  26   13   18 ar
  27   13   22 ar
  28   15   16 1
  29   15   17 2
  30   16   26 2
  31   16   24 1
  32   18   19 ar
  33   18   39 1
  34   19   20 ar
  35   19   23 1
  36   20   21 ar
  37   20   40 1
  38   21   22 ar
  39   21   41 1
  40   22   42 1
  41   23   43 1
  42   23   44 1
  43   23   45 1
  44   24   28 1
  45   25   46 1
  46   25   47 1
  47   25   48 1
  48   26   27 1
  49   26   49 1
  50   27   28 2
  51   27   29 1
  52   28   30 1
  53   29   50 1
  54   29   51 1
  55   29   52 1

#	End of record

