#	Name: ASD06600063
#	Creating user name:	WinNT
#	Creation time:	15. 06. 2019 21:07

#	Modifying user name:	WinNT
#	Modification time:	15. 06. 2019 21:07

#	Program:	/corina/corina34_cracker 3.40 0067  02.08.2006

@<TRIPOS>MOLECULE
ASD06600063
 447  448    0    0    0
SMALL
NO_CHARGES


@<TRIPOS>ATOM
   1 C1             3.0843   -15.9570    -8.5864 C.2     
   2 O2             2.5725   -16.9753    -8.1716 O.2     
   3 N3             4.8434   -17.4126    -9.4087 N.am    
   4 C4             4.3967   -16.0199    -9.3245 C.3     
   5 C5             0.4451   -13.4743    -8.1030 C.2     
   6 O6             1.0077   -12.6104    -8.7420 O.2     
   7 N7             2.4767   -14.7698    -8.3921 N.am    
   8 C8             1.1979   -14.7093    -7.6799 C.3     
   9 C9             1.4555   -14.6582    -6.1726 C.3     
  10 C10            2.1337   -15.9552    -5.7269 C.3     
  11 C11            2.3647   -13.4705    -5.8506 C.3     
  12 C12           -2.7132   -11.9021    -7.1457 C.2     
  13 O13           -3.0089   -12.7872    -6.3711 O.2     
  14 N14           -0.8532   -13.3297    -7.7714 N.am    
  15 C15           -1.5580   -12.0870    -8.0956 C.3     
  16 C16           -2.0841   -12.1585    -9.5306 C.3     
  17 C17           -0.9051   -12.1877   -10.5052 C.3     
  18 C18           -2.9210   -13.4275    -9.7042 C.3     
  19 C19           -5.5272    -9.5820    -6.8975 C.2     
  20 O20           -5.2302    -9.0235    -7.9323 O.2     
  21 N21           -3.4176   -10.7531    -7.1568 N.am    
  22 C22           -4.5996   -10.6103    -6.3032 C.3     
  23 C23           -4.1681   -10.1608    -4.9058 C.3     
  24 C24           -3.3406   -11.2438    -4.2629 C.2     
  25 C25           -2.1003   -11.0980    -3.7587 C.2     
  26 N26           -1.7231   -12.3217    -3.2752 N.pl3   
  27 C27           -2.7466   -13.1733    -3.5008 C.2     
  28 N28           -3.7124   -12.5205    -4.0873 N.2     
  29 C29           -8.4417    -7.6870    -5.7673 C.2     
  30 O30           -8.3096    -8.0602    -4.6209 O.2     
  31 N31           -6.6868    -9.2830    -6.2791 N.am    
  32 C32           -7.5885    -8.2834    -6.8569 C.3     
  33 C33           -8.4869    -8.9498    -7.9009 C.3     
  34 C34           -7.6311    -9.4457    -9.0682 C.3     
  35 C35           -8.5294   -10.1121   -10.1122 C.3     
  36 N36           -7.7100   -10.5870   -11.2299 N.pl3   
  37 C37           -8.3024   -11.2233   -12.2948 C.2     
  38 N38           -9.5931   -11.4042   -12.3101 N.2     
  39 N39           -7.5334   -11.6690   -13.3437 N.pl3   
  40 C40          -11.4908    -5.6626    -5.6735 C.2     
  41 O41          -11.4978    -5.4211    -6.8620 O.2     
  42 N42           -9.3516    -6.7389    -6.0666 N.am    
  43 C43          -10.2562    -6.2380    -5.0288 C.3     
  44 C44           -9.5495    -5.1496    -4.2183 C.3     
  45 C45          -10.4929    -4.6290    -3.1321 C.3     
  46 C46          -10.7167    -5.7216    -2.0846 C.3     
  47 C47           -9.8722    -3.4008    -2.4633 C.3     
  48 C48          -14.5691    -4.0873    -4.4879 C.2     
  49 O49          -14.1920    -4.0889    -3.3352 O.2     
  50 N50          -12.5871    -5.4162    -4.9292 N.am    
  51 C51          -13.7672    -4.8032    -5.5440 C.3     
  52 C52          -14.6290    -5.8905    -6.1891 C.3     
  53 C53          -13.8587    -6.5334    -7.3442 C.3     
  54 C54          -14.7206    -7.6206    -7.9893 C.3     
  55 N55          -13.9830    -8.2362    -9.0953 N.pl3   
  56 C56          -14.5602    -9.2456    -9.8289 C.2     
  57 N57          -13.9040    -9.7933   -10.8129 N.2     
  58 N58          -15.8295    -9.6772    -9.5246 N.pl3   
  59 C59          -17.9238    -2.6571    -4.2359 C.2     
  60 O60          -18.2646    -3.1266    -5.3009 O.2     
  61 N61          -15.7053    -3.4452    -4.8243 N.am    
  62 C62          -16.4849    -2.7492    -3.7976 C.3     
  63 C63          -15.9217    -1.3408    -3.5970 C.3     
  64 C64          -14.5024    -1.4346    -3.0334 C.3     
  65 C65          -13.9478    -0.0474    -2.8358 C.2     
  66 O66          -14.6213     0.9209    -3.1180 O.2     
  67 N67          -12.7032     0.1172    -2.3454 N.am    
  68 C68          -20.8873    -0.7870    -3.1950 C.2     
  69 O69          -20.2495    -0.0918    -2.4329 O.2     
  70 N70          -18.8320    -2.0530    -3.4442 N.am    
  71 C71          -20.2309    -1.9635    -3.8702 C.3     
  72 C72          -20.9651    -3.2487    -3.4831 C.3     
  73 C73          -24.3080     0.4033    -2.6997 C.2     
  74 O74          -24.7872    -0.6176    -3.1459 O.2     
  75 N75          -22.1832    -0.5075    -3.4379 N.am    
  76 C76          -22.8214     0.6362    -2.7814 C.3     
  77 C77          -22.5478     1.9061    -3.5898 C.3     
  78 C78          -21.0488     2.2116    -3.5680 C.3     
  79 C79          -20.7793     3.4624    -4.3641 C.2     
  80 O80          -21.6960     4.0515    -4.8966 O.2     
  81 N81          -19.5197     3.9264    -4.4845 N.am    
  82 C82          -27.2626     2.4283    -1.9702 C.2     
  83 O83          -26.6259     3.4605    -1.9779 O.2     
  84 N84          -25.1050     1.3293    -2.1308 N.am    
  85 C85          -26.5502     1.1029    -2.0514 C.3     
  86 C86          -26.8689     0.2753    -0.8046 C.3     
  87 C87          -26.2482    -1.1162    -0.9437 C.3     
  88 C88          -26.5670    -1.9438     0.3031 C.3     
  89 N89          -25.9726    -3.2762     0.1699 N.pl3   
  90 C90          -26.1276    -4.2016     1.1747 C.2     
  91 N91          -26.8034    -3.8935     2.2459 N.2     
  92 N92          -25.5699    -5.4519     1.0498 N.pl3   
  93 C93          -30.6339     3.5679    -1.1343 C.2     
  94 O94          -31.1467     2.4694    -1.0986 O.2     
  95 N95          -28.6074     2.4667    -1.8890 N.am    
  96 C96          -29.3000     3.7552    -1.8101 C.3     
  97 C97          -29.5160     4.3054    -3.2213 C.3     
  98 C98          -28.1603     4.5955    -3.8686 C.3     
  99 C99          -28.3763     5.1457    -5.2798 C.3     
 100 N100         -27.0782     5.4234    -5.8996 N.pl3   
 101 C101         -27.0204     5.9280    -7.1771 C.2     
 102 N102         -25.8655     6.1751    -7.7286 N.2     
 103 N103         -28.1807     6.1721    -7.8730 N.pl3   
 104 C104         -33.6144     4.2032    -1.0259 C.2     
 105 O105         -33.2515     3.9520    -2.1556 O.2     
 106 N106         -31.2571     4.6212    -0.5697 N.am    
 107 C107         -32.6047     4.6053     0.0180 C.3     
 108 C108         -32.9047     6.0352     0.5150 C.3     
 109 C109         -31.9365     6.9064    -0.3282 C.3     
 110 C110         -30.6979     5.9784    -0.4334 C.3     
 111 C111         -37.2548     4.2835    -1.3486 C.2     
 112 O112         -37.3859     4.9388    -0.3366 O.2     
 113 N113         -34.9207     4.1226    -0.7042 N.am    
 114 C114         -35.9023     3.7316    -1.7190 C.3     
 115 C115         -35.9775     2.2053    -1.7946 C.3     
 116 C116         -34.6399     1.6528    -2.2911 C.3     
 117 C117         -34.7140     0.1494    -2.3655 C.2     
 118 O118         -35.7359    -0.4236    -2.0523 O.2     
 119 N119         -33.6445    -0.5582    -2.7802 N.am    
 120 C120         -40.7106     3.7372    -2.4077 C.2     
 121 O121         -40.4097     2.7790    -3.0875 O.2     
 122 N122         -38.3187     4.0488    -2.1420 N.am    
 123 C123         -39.6335     4.5853    -1.7819 C.3     
 124 C124         -39.7551     6.0225    -2.2922 C.3     
 125 C125         -38.7429     6.9095    -1.5645 C.3     
 126 C126         -38.8645     8.3467    -2.0748 C.3     
 127 N127         -37.8953     9.1960    -1.3780 N.pl3   
 128 C128         -37.8193    10.5368    -1.6725 C.2     
 129 N129         -38.6097    11.0523    -2.5716 N.2     
 130 N130         -36.9098    11.3338    -1.0185 N.pl3   
 131 C131         -44.3062     4.0420    -2.9923 C.2     
 132 O132         -44.3214     5.2028    -2.6415 O.2     
 133 N133         -42.0084     4.0435    -2.2118 N.am    
 134 C134         -43.0556     3.2191    -2.8201 C.3     
 135 C135         -43.3531     2.0224    -1.9144 C.3     
 136 C136         -42.1197     1.1201    -1.8398 C.3     
 137 C137         -42.4128    -0.0585    -0.9477 C.2     
 138 O138         -43.5010    -0.1663    -0.4232 O.2     
 139 N139         -41.4656    -0.9929    -0.7327 N.am    
 140 C140         -47.8244     3.3775    -3.7301 C.2     
 141 O141         -47.6788     2.1785    -3.6200 O.2     
 142 N142         -45.4079     3.4879    -3.5363 N.am    
 143 C143         -46.6237     4.2879    -3.7036 C.3     
 144 C144         -46.5450     5.0665    -5.0184 C.3     
 145 C145         -45.4009     6.0797    -4.9433 C.3     
 146 C146         -45.3222     6.8583    -6.2581 C.3     
 147 C147         -44.1782     7.8714    -6.1830 C.3     
 148 N148         -44.1025     8.6190    -7.4453 N.3     
 149 C149         -51.3480     3.6794    -4.6552 C.2     
 150 O150         -51.1877     4.7863    -5.1243 O.2     
 151 N151         -49.0599     3.8957    -3.8762 N.am    
 152 C152         -50.2271     3.0107    -3.9019 C.3     
 153 C153         -50.6780     2.7195    -2.4692 C.3     
 154 C154         -54.9388     3.1386    -5.0760 C.2     
 155 O155         -54.9640     2.1915    -4.3188 O.2     
 156 N156         -52.5286     3.0475    -4.8075 N.am    
 157 C157         -53.6183     3.6975    -5.5398 C.3     
 158 C158         -53.4524     3.4370    -7.0383 C.3     
 159 C159         -52.1589     4.0903    -7.5293 C.3     
 160 C160         -53.3896     1.9292    -7.2900 C.3     
 161 C161         -58.4172     3.4551    -6.1545 C.2     
 162 O162         -58.1185     4.1499    -7.1026 O.2     
 163 N163         -56.0916     3.6912    -5.5026 N.am    
 164 C164         -57.3743     3.0895    -5.1299 C.3     
 165 C165         -57.8029     3.6117    -3.7571 C.3     
 166 C166         -56.8086     3.1344    -2.6968 C.3     
 167 C167         -57.2371     3.6566    -1.3240 C.3     
 168 N168         -56.2851     3.1995    -0.3086 N.pl3   
 169 C169         -56.4656     3.5474     1.0091 C.2     
 170 N170         -57.4839     4.2839     1.3551 N.2     
 171 N171         -55.5722     3.1185     1.9620 N.pl3   
 172 C172         -62.0628     3.3072    -6.3813 C.2     
 173 O173         -62.2061     2.7928    -5.2923 O.2     
 174 N174         -59.6820     3.0100    -6.0171 N.am    
 175 C175         -60.6958     3.3655    -7.0131 C.3     
 176 C176         -60.6313     2.3792    -8.1809 C.3     
 177 C177         -59.2851     2.5206    -8.8942 C.3     
 178 C178         -60.7804     0.9514    -7.6515 C.3     
 179 C179         -65.5213     3.8930    -7.4100 C.2     
 180 O180         -65.2326     3.8761    -8.5879 O.2     
 181 N181         -63.1260     3.8267    -7.0263 N.am    
 182 C182         -64.4336     3.8692    -6.3672 C.3     
 183 C183         -64.5283     5.1280    -5.5027 C.3     
 184 C184         -68.1083     5.3758    -8.4948 C.2     
 185 O185         -67.4599     6.2758    -8.0159 O.2     
 186 N186         -66.8149     3.9330    -7.0338 N.am    
 187 C187         -67.8722     3.9562    -8.0475 C.3     
 188 C188         -69.1620     3.3878    -7.4523 C.3     
 189 C189         -70.2302     3.2959    -8.5438 C.3     
 190 C190         -71.4780     2.6132    -7.9800 C.3     
 191 C191         -69.6549     4.3063    -6.3323 C.3     
 192 O192         -69.0390     5.6403    -9.4252 O.3     
 193 C193           6.0011   -17.7126   -10.0300 C.2     
 194 O194           6.6732   -16.8296   -10.5194 O.2     
 195 C195          19.0527   -29.7736   -15.9779 C.3     
 196 C196          18.5862   -28.3191   -15.8899 C.3     
 197 C197          17.2538   -28.2553   -15.1405 C.3     
 198 C198          16.7874   -26.8008   -15.0526 C.3     
 199 C199          15.4549   -26.7369   -14.3032 C.3     
 200 C200          14.9885   -25.2824   -14.2153 C.3     
 201 C201          13.6561   -25.2186   -13.4659 C.3     
 202 C202          13.1896   -23.7641   -13.3780 C.3     
 203 C203          11.8572   -23.7003   -12.6286 C.3     
 204 C204          11.3907   -22.2458   -12.5406 C.3     
 205 C205          10.0583   -22.1819   -11.7913 C.3     
 206 C206           9.5919   -20.7274   -11.7033 C.3     
 207 C207           8.2594   -20.6636   -10.9540 C.3     
 208 C208           7.7930   -19.2091   -10.8660 C.3     
 209 C209           6.4606   -19.1452   -10.1167 C.3     
 210 H210           4.3058   -18.1188    -9.0173 H       
 211 H211           4.2679   -15.6182   -10.3295 H       
 212 H212           5.1424   -15.4308    -8.7906 H       
 213 H213           2.8860   -13.9554    -8.7239 H       
 214 H214           0.6073   -15.5941    -7.9178 H       
 215 H215           0.5082   -14.5439    -5.6458 H       
 216 H216           3.1333   -16.0093    -6.1581 H       
 217 H217           2.2057   -15.9725    -4.6394 H       
 218 H218           1.5453   -16.8079    -6.0656 H       
 219 H219           1.8815   -12.5465    -6.1682 H       
 220 H220           2.5482   -13.4341    -4.7768 H       
 221 H221           3.3120   -13.5848    -6.3775 H       
 222 H222          -1.3209   -14.0484    -7.3181 H       
 223 H223          -0.8720   -11.2451    -8.0017 H       
 224 H224          -2.7027   -11.2846    -9.7347 H       
 225 H225          -0.3516   -13.1181   -10.3781 H       
 226 H226          -1.2773   -12.1232   -11.5277 H       
 227 H227          -0.2466   -11.3427   -10.3043 H       
 228 H228          -3.7609   -13.4067    -9.0099 H       
 229 H229          -3.2958   -13.4785   -10.7265 H       
 230 H230          -2.3024   -14.3014    -9.5001 H       
 231 H231          -3.1420   -10.0208    -7.7301 H       
 232 H232          -5.1154   -11.5679    -6.2336 H       
 233 H233          -3.5758    -9.2491    -4.9841 H       
 234 H234          -5.0516    -9.9689    -4.2969 H       
 235 H235          -1.5156   -10.1902    -3.7399 H       
 236 H236          -0.8783   -12.5370    -2.8498 H       
 237 H237          -2.7645   -14.2202    -3.2361 H       
 238 H238          -6.9243    -9.7297    -5.4515 H       
 239 H239          -7.0024    -7.4963    -7.3313 H       
 240 H240          -9.0068    -9.7937    -7.4474 H       
 241 H241          -9.2166    -8.2274    -8.2666 H       
 242 H242          -7.1111    -8.6019    -9.5217 H       
 243 H243          -6.9013   -10.1681    -8.7025 H       
 244 H244          -9.0493   -10.9559    -9.6586 H       
 245 H245          -9.2591    -9.3897   -10.4778 H       
 246 H246          -6.7494   -10.4524   -11.2185 H       
 247 H247         -10.0111   -11.8532   -13.0615 H       
 248 H248          -6.5728   -11.5344   -13.3324 H       
 249 H249          -7.9514   -12.1180   -14.0951 H       
 250 H250          -9.4076    -6.3883    -6.9693 H       
 251 H251         -10.5396    -7.0570    -4.3677 H       
 252 H252          -8.6551    -5.5651    -3.7542 H       
 253 H253          -9.2684    -4.3294    -4.8790 H       
 254 H254         -11.4476    -4.3549    -3.5808 H       
 255 H255          -9.7725    -5.9498    -1.5902 H       
 256 H256         -11.4389    -5.3742    -1.3458 H       
 257 H257         -11.0981    -6.6191    -2.5715 H       
 258 H258          -9.7128    -2.6225    -3.2096 H       
 259 H259         -10.5443    -3.0300    -1.6894 H       
 260 H260          -8.9175    -3.6750    -2.0146 H       
 261 H261         -12.5948    -5.6448    -3.9866 H       
 262 H262         -13.4512    -4.0905    -6.3057 H       
 263 H263         -14.8712    -6.6505    -5.4463 H       
 264 H264         -15.5495    -5.4469    -6.5686 H       
 265 H265         -13.6165    -5.7733    -8.0870 H       
 266 H266         -12.9382    -6.9769    -6.9647 H       
 267 H267         -14.9628    -8.3807    -7.2465 H       
 268 H268         -15.6411    -7.1771    -8.3687 H       
 269 H269         -13.0874    -7.9317    -9.3100 H       
 270 H270         -14.3112   -10.5054   -11.3305 H       
 271 H271         -16.3179    -9.2696    -8.7923 H       
 272 H272         -16.2368   -10.3893   -10.0422 H       
 273 H273         -16.0069    -3.4439    -5.7463 H       
 274 H274         -16.4254    -3.3013    -2.8597 H       
 275 H275         -15.8990    -0.8190    -4.5537 H       
 276 H276         -16.5544    -0.7926    -2.8990 H       
 277 H277         -14.5252    -1.9565    -2.0767 H       
 278 H278         -13.8698    -1.9829    -3.7314 H       
 279 H279         -12.1645    -0.6573    -2.1197 H       
 280 H280         -12.3462     1.0100    -2.2182 H       
 281 H281         -18.5595    -1.6775    -2.5924 H       
 282 H282         -20.2737    -1.8322    -4.9515 H       
 283 H283         -20.9223    -3.3800    -2.4019 H       
 284 H284         -22.0059    -3.1821    -3.8000 H       
 285 H285         -20.4903    -4.0997    -3.9715 H       
 286 H286         -22.6933    -1.0635    -4.0474 H       
 287 H287         -22.4158     0.7510    -1.7762 H       
 288 H288         -22.8736     1.7586    -4.6194 H       
 289 H289         -23.0951     2.7407    -3.1516 H       
 290 H290         -20.7230     2.3591    -2.5383 H       
 291 H291         -20.5015     1.3770    -4.0062 H       
 292 H292         -18.7865     3.4552    -4.0586 H       
 293 H293         -19.3463     4.7315    -4.9970 H       
 294 H294         -24.7217     2.1458    -1.7740 H       
 295 H295         -26.8830     0.5652    -2.9392 H       
 296 H296         -26.4576     0.7704     0.0750 H       
 297 H297         -27.9496     0.1820    -0.6970 H       
 298 H298         -26.6596    -1.6113    -1.8234 H       
 299 H299         -25.1676    -1.0229    -1.0513 H       
 300 H300         -26.1556    -1.4487     1.1827 H       
 301 H301         -27.6476    -2.0371     0.4107 H       
 302 H302         -25.4697    -3.5054    -0.6273 H       
 303 H303         -26.9128    -4.5464     2.9548 H       
 304 H304         -25.0670    -5.6812     0.2526 H       
 305 H305         -25.6792    -6.1049     1.7587 H       
 306 H306         -29.1167     1.6411    -1.8828 H       
 307 H307         -28.6967     4.4574    -1.2347 H       
 308 H308         -30.0544     3.5703    -3.8194 H       
 309 H309         -30.0972     5.2259    -3.1673 H       
 310 H310         -27.6219     5.3306    -3.2704 H       
 311 H311         -27.5791     3.6749    -3.9225 H       
 312 H312         -28.9147     4.4105    -5.8779 H       
 313 H313         -28.9575     6.0662    -5.2259 H       
 314 H314         -26.2596     5.2512    -5.4086 H       
 315 H315         -25.8247     6.5312    -8.6300 H       
 316 H316         -29.0402     5.9882    -7.4626 H       
 317 H317         -28.1399     6.5281    -8.7744 H       
 318 H318         -32.6366     3.9057     0.8533 H       
 319 H319         -33.9413     6.3043     0.3125 H       
 320 H320         -32.6814     6.1289     1.5778 H       
 321 H321         -32.3562     7.1164    -1.3120 H       
 322 H322         -31.6872     7.8303     0.1937 H       
 323 H323         -30.0901     6.0495     0.4686 H       
 324 H324         -30.1058     6.2348    -1.3119 H       
 325 H325         -35.2109     4.3234     0.1993 H       
 326 H326         -35.6008     4.1290    -2.6882 H       
 327 H327         -36.1919     1.8027    -0.8047 H       
 328 H328         -36.7695     1.9143    -2.4846 H       
 329 H329         -34.4255     2.0554    -3.2811 H       
 330 H330         -33.8479     1.9438    -1.6011 H       
 331 H331         -32.8272    -0.0999    -3.0308 H       
 332 H332         -33.6922    -1.5259    -2.8281 H       
 333 H333         -38.2138     3.5247    -2.9514 H       
 334 H334         -39.7461     4.5739    -0.6978 H       
 335 H335         -39.5547     6.0459    -3.3634 H       
 336 H336         -40.7633     6.3911    -2.1031 H       
 337 H337         -38.9433     6.8861    -0.4933 H       
 338 H338         -37.7347     6.5408    -1.7536 H       
 339 H339         -38.6640     8.3701    -3.1460 H       
 340 H340         -39.8727     8.7153    -1.8857 H       
 341 H341         -37.3071     8.8123    -0.7088 H       
 342 H342         -38.5561    11.9982    -2.7794 H       
 343 H343         -36.3216    10.9501    -0.3494 H       
 344 H344         -36.8562    12.2797    -1.2263 H       
 345 H345         -42.2492     4.8099    -1.6681 H       
 346 H346         -42.7181     2.8630    -3.7935 H       
 347 H347         -43.6049     2.3770    -0.9149 H       
 348 H348         -44.1920     1.4581    -2.3218 H       
 349 H349         -41.8680     0.7656    -2.8393 H       
 350 H350         -41.2808     1.6844    -1.4325 H       
 351 H351         -40.5953    -0.9067    -1.1522 H       
 352 H352         -41.6542    -1.7516    -0.1585 H       
 353 H353         -45.3957     2.5595    -3.8169 H       
 354 H354         -46.7160     4.9869    -2.8724 H       
 355 H355         -46.3637     4.3740    -5.8404 H       
 356 H356         -47.4851     5.5918    -5.1864 H       
 357 H357         -45.5822     6.7721    -4.1213 H       
 358 H358         -44.4608     5.5543    -4.7753 H       
 359 H359         -45.1409     6.1658    -7.0801 H       
 360 H360         -46.2623     7.3836    -6.4261 H       
 361 H361         -44.3594     8.5639    -5.3610 H       
 362 H362         -43.2380     7.3461    -6.0150 H       
 363 H363         -44.9839     9.0627    -7.6562 H       
 364 H364         -43.3540     9.2951    -7.4209 H       
 365 H365         -49.1763     4.8547    -3.9642 H       
 366 H366         -49.9635     2.0761    -4.3970 H       
 367 H367         -51.5464     2.0610    -2.4883 H       
 368 H368         -49.8672     2.2358    -1.9243 H       
 369 H369         -50.9416     3.6541    -1.9741 H       
 370 H370         -52.6569     2.1622    -4.4323 H       
 371 H371         -53.5923     4.7710    -5.3525 H       
 372 H372         -54.3003     3.8603    -7.5767 H       
 373 H373         -51.3036     3.5834    -7.0828 H       
 374 H374         -52.1017     4.0119    -8.6150 H       
 375 H375         -52.1501     5.1412    -7.2400 H       
 376 H376         -54.3110     1.4637    -6.9401 H       
 377 H377         -53.2713     1.7436    -8.3575 H       
 378 H378         -52.5416     1.5060    -6.7515 H       
 379 H379         -56.0721     4.4873    -6.0565 H       
 380 H380         -57.2690     2.0054    -5.0896 H       
 381 H381         -57.8222     4.7014    -3.7728 H       
 382 H382         -58.7972     3.2341    -3.5190 H       
 383 H383         -56.7893     2.0447    -2.6811 H       
 384 H384         -55.8142     3.5120    -2.9349 H       
 385 H385         -57.2564     4.7463    -1.3396 H       
 386 H386         -58.2315     3.2790    -1.0858 H       
 387 H387         -55.5273     2.6515    -0.5661 H       
 388 H388         -57.6113     4.5294     2.2849 H       
 389 H389         -54.8144     2.5705     1.7045 H       
 390 H390         -55.6996     3.3640     2.8917 H       
 391 H391         -59.9209     2.4544    -5.2588 H       
 392 H392         -60.5075     4.3748    -7.3791 H       
 393 H393         -61.4381     2.5928    -8.8820 H       
 394 H394         -58.4788     2.2942    -8.1966 H       
 395 H395         -59.2443     1.8272    -9.7342 H       
 396 H396         -59.1732     3.5413    -9.2599 H       
 397 H397         -61.7394     0.8506    -7.1434 H       
 398 H398         -60.7344     0.2488    -8.4835 H       
 399 H399         -59.9735     0.7378    -6.9505 H       
 400 H400         -63.0254     4.1724    -7.9270 H       
 401 H401         -64.5524     2.9868    -5.7384 H       
 402 H402         -65.5013     5.1596    -5.0123 H       
 403 H403         -63.7416     5.1108    -4.7484 H       
 404 H404         -64.4095     6.0104    -6.1315 H       
 405 H405         -67.0458     3.9465    -6.0917 H       
 406 H406         -67.5693     3.3515    -8.9024 H       
 407 H407         -68.9687     2.3940    -7.0485 H       
 408 H408         -70.4877     4.2984    -8.8855 H       
 409 H409         -69.8449     2.7144    -9.3812 H       
 410 H410         -71.2206     1.6107    -7.6382 H       
 411 H411         -71.8633     3.1948    -7.1425 H       
 412 H412         -72.2390     2.5477    -8.7576 H       
 413 H413         -70.5737     3.9014    -5.9083 H       
 414 H414         -68.8938     4.3718    -5.5547 H       
 415 H415         -69.8482     5.3002    -6.7361 H       
 416 H416         -69.1543     6.5660    -9.6800 H       
 417 H417          19.1815   -30.1753   -14.9728 H       
 418 H418          18.3070   -30.3627   -16.5118 H       
 419 H419          20.0019   -29.8191   -16.5117 H       
 420 H420          19.3319   -27.7301   -15.3560 H       
 421 H421          18.4574   -27.9174   -16.8949 H       
 422 H422          16.5081   -28.8443   -15.6745 H       
 423 H423          17.3826   -28.6570   -14.1355 H       
 424 H424          17.5331   -26.2117   -14.5187 H       
 425 H425          16.6586   -26.3991   -16.0576 H       
 426 H426          14.7092   -27.3260   -14.8372 H       
 427 H427          15.5837   -27.1386   -13.2982 H       
 428 H428          15.7342   -24.6934   -13.6814 H       
 429 H429          14.8597   -24.8808   -15.2203 H       
 430 H430          12.9104   -25.8076   -13.9998 H       
 431 H431          13.7848   -25.6203   -12.4609 H       
 432 H432          13.9353   -23.1750   -12.8440 H       
 433 H433          13.0608   -23.3624   -14.3830 H       
 434 H434          11.1115   -24.2893   -13.1625 H       
 435 H435          11.9860   -24.1019   -11.6236 H       
 436 H436          12.1364   -21.6567   -12.0067 H       
 437 H437          11.2620   -21.8441   -13.5457 H       
 438 H438           9.3126   -22.7710   -12.3252 H       
 439 H439          10.1871   -22.5836   -10.7862 H       
 440 H440          10.3376   -20.1384   -11.1694 H       
 441 H441           9.4631   -20.3257   -12.7084 H       
 442 H442           7.5137   -21.2526   -11.4879 H       
 443 H443           8.3882   -21.0653    -9.9489 H       
 444 H444           8.5387   -18.6200   -10.3321 H       
 445 H445           7.6642   -18.8074   -11.8711 H       
 446 H446           6.5893   -19.5469    -9.1116 H       
 447 H447           5.7149   -19.7343   -10.6506 H       
@<TRIPOS>BOND
   1    1    2 2
   2    1    4 1
   3    1    7 am
   4    3    4 1
   5    3  193 am
   6    3  210 1
   7    4  211 1
   8    4  212 1
   9    5    6 2
  10    5    8 1
  11    5   14 am
  12    7    8 1
  13    7  213 1
  14    8    9 1
  15    8  214 1
  16    9   10 1
  17    9   11 1
  18    9  215 1
  19   10  216 1
  20   10  217 1
  21   10  218 1
  22   11  219 1
  23   11  220 1
  24   11  221 1
  25   12   13 2
  26   12   15 1
  27   12   21 am
  28   14   15 1
  29   14  222 1
  30   15   16 1
  31   15  223 1
  32   16   17 1
  33   16   18 1
  34   16  224 1
  35   17  225 1
  36   17  226 1
  37   17  227 1
  38   18  228 1
  39   18  229 1
  40   18  230 1
  41   19   20 2
  42   19   22 1
  43   19   31 am
  44   21   22 1
  45   21  231 1
  46   22   23 1
  47   22  232 1
  48   23   24 1
  49   23  233 1
  50   23  234 1
  51   24   25 2
  52   24   28 1
  53   25   26 1
  54   25  235 1
  55   26   27 1
  56   26  236 1
  57   27   28 2
  58   27  237 1
  59   29   30 2
  60   29   32 1
  61   29   42 am
  62   31   32 1
  63   31  238 1
  64   32   33 1
  65   32  239 1
  66   33   34 1
  67   33  240 1
  68   33  241 1
  69   34   35 1
  70   34  242 1
  71   34  243 1
  72   35   36 1
  73   35  244 1
  74   35  245 1
  75   36   37 1
  76   36  246 1
  77   37   38 2
  78   37   39 1
  79   38  247 1
  80   39  248 1
  81   39  249 1
  82   40   41 2
  83   40   43 1
  84   40   50 am
  85   42   43 1
  86   42  250 1
  87   43   44 1
  88   43  251 1
  89   44   45 1
  90   44  252 1
  91   44  253 1
  92   45   46 1
  93   45   47 1
  94   45  254 1
  95   46  255 1
  96   46  256 1
  97   46  257 1
  98   47  258 1
  99   47  259 1
 100   47  260 1
 101   48   49 2
 102   48   51 1
 103   48   61 am
 104   50   51 1
 105   50  261 1
 106   51   52 1
 107   51  262 1
 108   52   53 1
 109   52  263 1
 110   52  264 1
 111   53   54 1
 112   53  265 1
 113   53  266 1
 114   54   55 1
 115   54  267 1
 116   54  268 1
 117   55   56 1
 118   55  269 1
 119   56   57 2
 120   56   58 1
 121   57  270 1
 122   58  271 1
 123   58  272 1
 124   59   60 2
 125   59   62 1
 126   59   70 am
 127   61   62 1
 128   61  273 1
 129   62   63 1
 130   62  274 1
 131   63   64 1
 132   63  275 1
 133   63  276 1
 134   64   65 1
 135   64  277 1
 136   64  278 1
 137   65   66 2
 138   65   67 am
 139   67  279 1
 140   67  280 1
 141   68   69 2
 142   68   71 1
 143   68   75 am
 144   70   71 1
 145   70  281 1
 146   71   72 1
 147   71  282 1
 148   72  283 1
 149   72  284 1
 150   72  285 1
 151   73   74 2
 152   73   76 1
 153   73   84 am
 154   75   76 1
 155   75  286 1
 156   76   77 1
 157   76  287 1
 158   77   78 1
 159   77  288 1
 160   77  289 1
 161   78   79 1
 162   78  290 1
 163   78  291 1
 164   79   80 2
 165   79   81 am
 166   81  292 1
 167   81  293 1
 168   82   83 2
 169   82   85 1
 170   82   95 am
 171   84   85 1
 172   84  294 1
 173   85   86 1
 174   85  295 1
 175   86   87 1
 176   86  296 1
 177   86  297 1
 178   87   88 1
 179   87  298 1
 180   87  299 1
 181   88   89 1
 182   88  300 1
 183   88  301 1
 184   89   90 1
 185   89  302 1
 186   90   91 2
 187   90   92 1
 188   91  303 1
 189   92  304 1
 190   92  305 1
 191   93   94 2
 192   93   96 1
 193   93  106 am
 194   95   96 1
 195   95  306 1
 196   96   97 1
 197   96  307 1
 198   97   98 1
 199   97  308 1
 200   97  309 1
 201   98   99 1
 202   98  310 1
 203   98  311 1
 204   99  100 1
 205   99  312 1
 206   99  313 1
 207  100  101 1
 208  100  314 1
 209  101  102 2
 210  101  103 1
 211  102  315 1
 212  103  316 1
 213  103  317 1
 214  104  105 2
 215  104  113 am
 216  104  107 1
 217  106  107 1
 218  106  110 1
 219  107  108 1
 220  107  318 1
 221  108  109 1
 222  108  319 1
 223  108  320 1
 224  109  110 1
 225  109  321 1
 226  109  322 1
 227  110  323 1
 228  110  324 1
 229  111  112 2
 230  111  114 1
 231  111  122 am
 232  113  114 1
 233  113  325 1
 234  114  115 1
 235  114  326 1
 236  115  116 1
 237  115  327 1
 238  115  328 1
 239  116  117 1
 240  116  329 1
 241  116  330 1
 242  117  118 2
 243  117  119 am
 244  119  331 1
 245  119  332 1
 246  120  121 2
 247  120  123 1
 248  120  133 am
 249  122  123 1
 250  122  333 1
 251  123  124 1
 252  123  334 1
 253  124  125 1
 254  124  335 1
 255  124  336 1
 256  125  126 1
 257  125  337 1
 258  125  338 1
 259  126  127 1
 260  126  339 1
 261  126  340 1
 262  127  128 1
 263  127  341 1
 264  128  129 2
 265  128  130 1
 266  129  342 1
 267  130  343 1
 268  130  344 1
 269  131  132 2
 270  131  134 1
 271  131  142 am
 272  133  134 1
 273  133  345 1
 274  134  135 1
 275  134  346 1
 276  135  136 1
 277  135  347 1
 278  135  348 1
 279  136  137 1
 280  136  349 1
 281  136  350 1
 282  137  138 2
 283  137  139 am
 284  139  351 1
 285  139  352 1
 286  140  141 2
 287  140  143 1
 288  140  151 am
 289  142  143 1
 290  142  353 1
 291  143  144 1
 292  143  354 1
 293  144  145 1
 294  144  355 1
 295  144  356 1
 296  145  146 1
 297  145  357 1
 298  145  358 1
 299  146  147 1
 300  146  359 1
 301  146  360 1
 302  147  148 1
 303  147  361 1
 304  147  362 1
 305  148  363 1
 306  148  364 1
 307  149  150 2
 308  149  152 1
 309  149  156 am
 310  151  152 1
 311  151  365 1
 312  152  153 1
 313  152  366 1
 314  153  367 1
 315  153  368 1
 316  153  369 1
 317  154  155 2
 318  154  157 1
 319  154  163 am
 320  156  157 1
 321  156  370 1
 322  157  158 1
 323  157  371 1
 324  158  159 1
 325  158  160 1
 326  158  372 1
 327  159  373 1
 328  159  374 1
 329  159  375 1
 330  160  376 1
 331  160  377 1
 332  160  378 1
 333  161  162 2
 334  161  164 1
 335  161  174 am
 336  163  164 1
 337  163  379 1
 338  164  165 1
 339  164  380 1
 340  165  166 1
 341  165  381 1
 342  165  382 1
 343  166  167 1
 344  166  383 1
 345  166  384 1
 346  167  168 1
 347  167  385 1
 348  167  386 1
 349  168  169 1
 350  168  387 1
 351  169  170 2
 352  169  171 1
 353  170  388 1
 354  171  389 1
 355  171  390 1
 356  172  173 2
 357  172  175 1
 358  172  181 am
 359  174  175 1
 360  174  391 1
 361  175  176 1
 362  175  392 1
 363  176  177 1
 364  176  178 1
 365  176  393 1
 366  177  394 1
 367  177  395 1
 368  177  396 1
 369  178  397 1
 370  178  398 1
 371  178  399 1
 372  179  180 2
 373  179  182 1
 374  179  186 am
 375  181  182 1
 376  181  400 1
 377  182  183 1
 378  182  401 1
 379  183  402 1
 380  183  403 1
 381  183  404 1
 382  184  185 2
 383  184  187 1
 384  184  192 1
 385  186  187 1
 386  186  405 1
 387  187  188 1
 388  187  406 1
 389  188  189 1
 390  188  191 1
 391  188  407 1
 392  189  190 1
 393  189  408 1
 394  189  409 1
 395  190  410 1
 396  190  411 1
 397  190  412 1
 398  191  413 1
 399  191  414 1
 400  191  415 1
 401  192  416 1
 402  193  194 2
 403  193  209 1
 404  195  196 1
 405  195  417 1
 406  195  418 1
 407  195  419 1
 408  196  197 1
 409  196  420 1
 410  196  421 1
 411  197  198 1
 412  197  422 1
 413  197  423 1
 414  198  199 1
 415  198  424 1
 416  198  425 1
 417  199  200 1
 418  199  426 1
 419  199  427 1
 420  200  201 1
 421  200  428 1
 422  200  429 1
 423  201  202 1
 424  201  430 1
 425  201  431 1
 426  202  203 1
 427  202  432 1
 428  202  433 1
 429  203  204 1
 430  203  434 1
 431  203  435 1
 432  204  205 1
 433  204  436 1
 434  204  437 1
 435  205  206 1
 436  205  438 1
 437  205  439 1
 438  206  207 1
 439  206  440 1
 440  206  441 1
 441  207  208 1
 442  207  442 1
 443  207  443 1
 444  208  209 1
 445  208  444 1
 446  208  445 1
 447  209  446 1
 448  209  447 1

#	End of record

