#	Name: ASD07301374
#	Creating user name:	WinNT
#	Creation time:	15. 06. 2019 21:11

#	Modifying user name:	WinNT
#	Modification time:	15. 06. 2019 21:11

#	Program:	/corina/corina34_cracker 3.40 0067  02.08.2006

@<TRIPOS>MOLECULE
ASD07301374
  32   33    0    0    0
SMALL
NO_CHARGES


@<TRIPOS>ATOM
   1 C1            -0.0169     1.4677     0.0593 C.2     
   2 C2             0.0021    -0.0041     0.0008 C.2     
   3 C3             1.2725    -0.6340    -0.0643 C.2     
   4 C4             2.3712     0.1569    -0.0681 C.2     
   5 N5             2.2571     1.5074    -0.0109 N.pl3   
   6 N6             1.1311     2.1171     0.0484 N.2     
   7 O7            -1.0309    -0.6545     0.0085 O.2     
   8 C8             3.4274     2.2735    -0.0171 C.ar    
   9 C9             3.3531     3.6576    -0.1133 C.ar    
  10 C10            4.5103     4.4108    -0.1185 C.ar    
  11 C11            5.7425     3.7890    -0.0282 C.ar    
  12 C12            5.8200     2.4117     0.0676 C.ar    
  13 C13            4.6662     1.6526     0.0788 C.ar    
  14 C14            4.4307     5.9120    -0.2233 C.3     
  15 F15            4.3541     6.4656     1.0592 F       
  16 F16            5.5718     6.3954    -0.8725 F       
  17 F17            3.2922     6.2688    -0.9540 F       
  18 C18            1.3942    -2.1348    -0.1267 C.3     
  19 C19           -1.2899     2.1982     0.1224 C.2     
  20 O20           -2.3389     1.5894     0.1268 O.2     
  21 C21           -1.2924     3.7041     0.1818 C.3     
  22 H22            3.3517    -0.2934    -0.1170 H       
  23 H23            2.3913     4.1437    -0.1841 H       
  24 H24            6.6461     4.3805    -0.0330 H       
  25 H25            6.7838     1.9294     0.1379 H       
  26 H26            4.7274     0.5773     0.1577 H       
  27 H27            0.3998    -2.5809    -0.1124 H       
  28 H28            1.9071    -2.4198    -1.0453 H       
  29 H29            1.9639    -2.4891     0.7324 H       
  30 H30           -1.3207     4.1076    -0.8304 H       
  31 H31           -2.1688     4.0445     0.7333 H       
  32 H32           -0.3895     4.0493     0.6855 H       
@<TRIPOS>BOND
   1    1    2 1
   2    1    6 2
   3    1   19 1
   4    2    3 1
   5    2    7 2
   6    3    4 2
   7    3   18 1
   8    4    5 1
   9    4   22 1
  10    5    6 1
  11    5    8 1
  12    8    9 ar
  13    8   13 ar
  14    9   10 ar
  15    9   23 1
  16   10   11 ar
  17   10   14 1
  18   11   12 ar
  19   11   24 1
  20   12   13 ar
  21   12   25 1
  22   13   26 1
  23   14   15 1
  24   14   16 1
  25   14   17 1
  26   18   27 1
  27   18   28 1
  28   18   29 1
  29   19   20 2
  30   19   21 1
  31   21   30 1
  32   21   31 1
  33   21   32 1

#	End of record

