#	Name: ASD08170048
#	Creating user name:	WinNT
#	Creation time:	15. 06. 2019 21:17

#	Modifying user name:	WinNT
#	Modification time:	15. 06. 2019 21:17

#	Program:	/corina/corina34_cracker 3.40 0067  02.08.2006

@<TRIPOS>MOLECULE
ASD08170048
  60   64    0    0    0
SMALL
NO_CHARGES


@<TRIPOS>ATOM
   1 C1            -0.0187     1.5253     0.0104 C.3     
   2 C2             0.0021    -0.0041     0.0020 C.3     
   3 C3             0.6091    -0.5585     1.2639 C.2     
   4 C4             0.6228     0.1942     2.4012 C.2     
   5 C5            -0.0340     1.4316     2.4689 C.2     
   6 C6            -0.7558     1.9857     1.2706 C.3     
   7 C7             1.1513    -1.8676     1.2723 C.ar    
   8 C8             1.6211    -2.4114     2.4809 C.ar    
   9 N9             1.4014    -1.7239     3.6660 N.pl3   
  10 C10            1.3983    -0.2589     3.6169 C.3     
  11 C11            1.2170    -2.7183     0.0846 C.ar    
  12 C12            2.0269    -3.8841     0.1341 C.ar    
  13 C13            2.5643    -4.3133     1.3626 C.ar    
  14 C14            2.3317    -3.6120     2.5000 C.ar    
  15 C15            2.8160     0.2440     3.5263 C.ar    
  16 C16            3.1973     1.3648     4.2405 C.ar    
  17 C17            4.4959     1.8284     4.1596 C.ar    
  18 C18            5.4191     1.1673     3.3598 C.ar    
  19 C19            5.0326     0.0414     2.6434 C.ar    
  20 C20            3.7342    -0.4200     2.7332 C.ar    
  21 C21            1.4075     2.0754    -0.0002 C.3     
  22 C22           -0.7680     2.0296    -1.2284 C.3     
  23 O23           -0.0230     2.0652     3.5060 O.2     
  24 N24            6.7330     1.6337     3.2754 N.3     
  25 C25            7.6848     0.6114     3.7303 C.3     
  26 C26            7.0480     2.0760     1.9104 C.3     
  27 C27            2.2686    -4.6140    -1.0408 C.ar    
  28 C28            1.5914    -4.3010    -2.1801 C.ar    
  29 C29            0.4711    -2.4913    -1.0734 C.ar    
  30 C30            0.6720    -3.2576    -2.1863 C.ar    
  31 N31            4.9031     3.0285     4.9241 N.pl3   
  32 O32            4.0928     3.6079     5.6251 O.2     
  33 O33            6.0484     3.4367     4.8523 O.2     
  34 H34           -1.0133    -0.3789    -0.1122 H       
  35 H35            0.6132    -0.3177    -0.8512 H       
  36 H36           -0.7655     3.0737     1.3165 H       
  37 H37           -1.7792     1.6093     1.2549 H       
  38 H38            1.2545    -2.1979     4.4986 H       
  39 H39            0.9295     0.1360     4.5172 H       
  40 H40            3.1651    -5.2093     1.3985 H       
  41 H41            2.7010    -3.9904     3.4419 H       
  42 H42            2.4789     1.8785     4.8620 H       
  43 H43            5.7480    -0.4749     2.0205 H       
  44 H44            3.4332    -1.2954     2.1769 H       
  45 H45            1.9229     1.7315    -0.8970 H       
  46 H46            1.3768     3.1649     0.0059 H       
  47 H47            1.9399     1.7220     0.8828 H       
  48 H48           -1.7901     1.6510    -1.2139 H       
  49 H49           -0.7842     3.1194    -1.2247 H       
  50 H50           -0.2626     1.6767    -2.1274 H       
  51 H51            7.5887    -0.2776     3.1068 H       
  52 H52            8.7001     1.0006     3.6541 H       
  53 H53            7.4718     0.3525     4.7674 H       
  54 H54            6.3720     2.8819     1.6245 H       
  55 H55            8.0768     2.4342     1.8728 H       
  56 H56            6.9288     1.2401     1.2210 H       
  57 H57            2.9890    -5.4190    -1.0405 H       
  58 H58            1.7696    -4.8653    -3.0822 H       
  59 H59           -0.3139    -1.7524    -1.1001 H       
  60 H60            0.1077    -3.0486    -3.0834 H       
@<TRIPOS>BOND
   1    1    2 1
   2    1   21 1
   3    1   22 1
   4    1    6 1
   5    2    3 1
   6    2   34 1
   7    2   35 1
   8    3    4 2
   9    3    7 1
  10    4    5 1
  11    4   10 1
  12    5    6 1
  13    5   23 2
  14    6   36 1
  15    6   37 1
  16    7    8 ar
  17    7   11 ar
  18    8    9 1
  19    8   14 ar
  20    9   10 1
  21    9   38 1
  22   10   15 1
  23   10   39 1
  24   11   12 ar
  25   11   29 ar
  26   12   13 ar
  27   12   27 ar
  28   13   14 ar
  29   13   40 1
  30   14   41 1
  31   15   16 ar
  32   15   20 ar
  33   16   17 ar
  34   16   42 1
  35   17   18 ar
  36   17   31 1
  37   18   19 ar
  38   18   24 1
  39   19   20 ar
  40   19   43 1
  41   20   44 1
  42   21   45 1
  43   21   46 1
  44   21   47 1
  45   22   48 1
  46   22   49 1
  47   22   50 1
  48   24   25 1
  49   24   26 1
  50   25   51 1
  51   25   52 1
  52   25   53 1
  53   26   54 1
  54   26   55 1
  55   26   56 1
  56   27   28 ar
  57   27   57 1
  58   28   30 ar
  59   28   58 1
  60   29   30 ar
  61   29   59 1
  62   30   60 1
  63   31   32 2
  64   31   33 2

#	End of record

