#	Name: ASD02440051
#	Creating user name:	WinNT
#	Creation time:	15. 06. 2019 20:21

#	Modifying user name:	WinNT
#	Modification time:	15. 06. 2019 20:21

#	Program:	/corina/corina34_cracker 3.40 0067  02.08.2006

@<TRIPOS>MOLECULE
ASD02440051
  48   51    0    0    0
SMALL
NO_CHARGES


@<TRIPOS>ATOM
   1 N1             0.0130     1.3286    -0.6773 N.am    
   2 C2             0.0443    -0.0080    -0.7261 C.2     
   3 S3             1.7460    -0.4889    -0.6087 S.3     
   4 C4             2.3558     1.1742    -0.4962 C.2     
   5 C5             1.1445     2.0035    -0.5611 C.2     
   6 S6            -1.3026    -1.0544    -0.8733 S.2     
   7 C7            -1.2652     2.0398    -0.7582 C.3     
   8 C8            -1.8230     2.2298     0.6288 C.ar    
   9 O9             1.1797     3.2188    -0.5120 O.2     
  10 C10            3.6428     1.5847    -0.3773 C.2     
  11 C11            4.7061     0.6038    -0.1154 C.ar    
  12 C12            4.3788    -0.7108     0.2350 C.ar    
  13 C13            5.3799    -1.6273     0.4798 C.ar    
  14 C14            6.7073    -1.2522     0.3802 C.ar    
  15 C15            7.0436     0.0505     0.0329 C.ar    
  16 C16            6.0494     0.9789    -0.2210 C.ar    
  17 C17           -3.1655     1.4334     2.4450 C.ar    
  18 C18           -2.6511     1.2657     1.1761 C.ar    
  19 C19           -1.5003     3.3648     1.3514 C.ar    
  20 C20           -2.0073     3.5450     2.6216 C.ar    
  21 C21           -2.8481     2.5789     3.1777 C.ar    
  22 C22           -3.3957     2.7655     4.5370 C.2     
  23 O23           -4.1238     1.9215     5.0196 O.2     
  24 O24           -3.0875     3.8717     5.2412 O.3     
  25 O25            8.3502     0.4117    -0.0630 O.3     
  26 C26            8.8590     1.2264     0.8982 C.ar    
  27 C27            8.0938     1.5537     2.0085 C.ar    
  28 C28           10.1468     1.7278     0.7740 C.ar    
  29 C29           10.6619     2.5554     1.7527 C.ar    
  30 C30            9.8953     2.8842     2.8555 C.ar    
  31 C31            8.6136     2.3817     2.9843 C.ar    
  32 H32           -1.1106     3.0130    -1.2241 H       
  33 H33           -1.9674     1.4584    -1.3557 H       
  34 H34            3.8866     2.6323    -0.4749 H       
  35 H35            3.3433    -1.0073     0.3141 H       
  36 H36            5.1264    -2.6416     0.7505 H       
  37 H37            7.4861    -1.9750     0.5735 H       
  38 H38            6.3097     1.9917    -0.4910 H       
  39 H39           -3.8122     0.6805     2.8707 H       
  40 H40           -2.8954     0.3801     0.6084 H       
  41 H41           -0.8496     4.1111     0.9202 H       
  42 H42           -1.7544     4.4312     3.1846 H       
  43 H43           -3.4696     3.9495     6.1261 H       
  44 H44            7.0925     1.1617     2.1094 H       
  45 H45           10.7461     1.4710    -0.0870 H       
  46 H46           11.6643     2.9457     1.6567 H       
  47 H47           10.3000     3.5311     3.6198 H       
  48 H48            8.0184     2.6367     3.8487 H       
@<TRIPOS>BOND
   1    1    2 am
   2    1    5 am
   3    1    7 1
   4    2    3 1
   5    2    6 2
   6    3    4 1
   7    4    5 1
   8    4   10 2
   9    5    9 2
  10    7    8 1
  11    7   32 1
  12    7   33 1
  13    8   19 ar
  14    8   18 ar
  15   10   11 1
  16   10   34 1
  17   11   12 ar
  18   11   16 ar
  19   12   13 ar
  20   12   35 1
  21   13   14 ar
  22   13   36 1
  23   14   15 ar
  24   14   37 1
  25   15   16 ar
  26   15   25 1
  27   16   38 1
  28   17   18 ar
  29   17   21 ar
  30   17   39 1
  31   18   40 1
  32   19   20 ar
  33   19   41 1
  34   20   21 ar
  35   20   42 1
  36   21   22 1
  37   22   23 2
  38   22   24 1
  39   24   43 1
  40   25   26 1
  41   26   28 ar
  42   26   27 ar
  43   27   31 ar
  44   27   44 1
  45   28   29 ar
  46   28   45 1
  47   29   30 ar
  48   29   46 1
  49   30   31 ar
  50   30   47 1
  51   31   48 1

#	End of record

