#	Name: ASD08170105
#	Creating user name:	WinNT
#	Creation time:	15. 06. 2019 21:17

#	Modifying user name:	WinNT
#	Modification time:	15. 06. 2019 21:17

#	Program:	/corina/corina34_cracker 3.40 0067  02.08.2006

@<TRIPOS>MOLECULE
ASD08170105
  55   57    0    0    0
SMALL
NO_CHARGES


@<TRIPOS>ATOM
   1 C1            -0.0187     1.5258     0.0104 C.3     
   2 C2             0.0021    -0.0041     0.0020 C.3     
   3 C3             1.4167     2.0553    -0.0004 C.3     
   4 C4             1.3960     3.5852     0.0080 C.3     
   5 C5             2.8098     4.1068    -0.0027 C.2     
   6 C6            -1.4117    -0.5257     0.0127 C.2     
   7 S7             3.7994     4.4593     1.4143 S.3     
   8 C8             5.0767     4.9397     0.3787 C.2     
   9 N9             4.6864     4.8067    -0.8531 N.2     
  10 N10            3.5184     4.3716    -1.0541 N.2     
  11 S11           -2.3742    -0.8935     1.4445 S.3     
  12 N12           -2.1404    -0.7792    -1.0277 N.2     
  13 N13           -3.3059    -1.2123    -0.8091 N.2     
  14 C14           -3.6711    -1.3628     0.4283 C.2     
  15 N15           -4.9102    -1.8264     0.8572 N.am    
  16 C16           -5.8529    -2.1632    -0.0452 C.2     
  17 O17           -5.6206    -2.0619    -1.2313 O.2     
  18 N18            6.3247     5.3964     0.7887 N.am    
  19 C19            7.2491     5.7455    -0.1278 C.2     
  20 C20            8.6014     6.2404     0.3166 C.3     
  21 O21            6.9926     5.6614    -1.3102 O.2     
  22 C22           -7.1955    -2.6655     0.4196 C.3     
  23 C23            9.4541     6.5659    -0.9114 C.3     
  24 C24           -8.0598    -2.9694    -0.7770 C.ar    
  25 C25           -8.0410    -4.2316    -1.3401 C.ar    
  26 C26           -8.8753    -1.9876    -1.3074 C.ar    
  27 C27           -9.6695    -2.2672    -2.4064 C.ar    
  28 C28           -9.6458    -3.5306    -2.9729 C.ar    
  29 C29           -8.8334    -4.5120    -2.4379 C.ar    
  30 F30          -10.4673    -1.3084    -2.9254 F       
  31 C31           10.7594     7.1755    -0.4692 C.2     
  32 O32           10.7683     8.3659     0.1509 O.3     
  33 O33           11.7981     6.5927    -0.6728 O.2     
  34 O34            9.7124     5.3662    -1.6435 O.3     
  35 H35           -0.5459     1.8868    -0.8726 H       
  36 H36           -0.5289     1.8773     0.9072 H       
  37 H37            0.5123    -0.3556    -0.8948 H       
  38 H38            0.5293    -0.3651     0.8851 H       
  39 H39            1.9439     1.6943     0.8826 H       
  40 H40            1.9269     1.7038    -0.8972 H       
  41 H41            0.8688     3.9463    -0.8751 H       
  42 H42            0.8858     3.9367     0.9048 H       
  43 H43           -5.0959    -1.9073     1.8058 H       
  44 H44            6.5298     5.4636     1.7344 H       
  45 H45            8.4786     7.1384     0.9221 H       
  46 H46            9.0947     5.4685     0.9072 H       
  47 H47           -7.0600    -3.5719     1.0095 H       
  48 H48           -7.6771    -1.9025     1.0312 H       
  49 H49            8.9204     7.2720    -1.5475 H       
  50 H50           -7.4065    -4.9994    -0.9224 H       
  51 H51           -8.8932    -1.0027    -0.8646 H       
  52 H52          -10.2649    -3.7499    -3.8302 H       
  53 H53           -8.8145    -5.4972    -2.8798 H       
  54 H54           11.6297     8.7166     0.4158 H       
  55 H55           10.1858     4.6913    -1.1381 H       
@<TRIPOS>BOND
   1    1    2 1
   2    1    3 1
   3    1   35 1
   4    1   36 1
   5    2    6 1
   6    2   37 1
   7    2   38 1
   8    3    4 1
   9    3   39 1
  10    3   40 1
  11    4    5 1
  12    4   41 1
  13    4   42 1
  14    5    7 1
  15    5   10 2
  16    6   11 1
  17    6   12 2
  18    7    8 1
  19    8    9 2
  20    8   18 1
  21    9   10 1
  22   11   14 1
  23   12   13 1
  24   13   14 2
  25   14   15 1
  26   15   16 am
  27   15   43 1
  28   16   17 2
  29   16   22 1
  30   18   19 am
  31   18   44 1
  32   19   20 1
  33   19   21 2
  34   20   23 1
  35   20   45 1
  36   20   46 1
  37   22   24 1
  38   22   47 1
  39   22   48 1
  40   23   31 1
  41   23   34 1
  42   23   49 1
  43   24   25 ar
  44   24   26 ar
  45   25   29 ar
  46   25   50 1
  47   26   27 ar
  48   26   51 1
  49   27   28 ar
  50   27   30 1
  51   28   29 ar
  52   28   52 1
  53   29   53 1
  54   31   32 1
  55   31   33 2
  56   32   54 1
  57   34   55 1

#	End of record

