#	Name: ASD03091804
#	Creating user name:	WinNT
#	Creation time:	15. 06. 2019 20:31

#	Modifying user name:	WinNT
#	Modification time:	15. 06. 2019 20:31

#	Program:	/corina/corina34_cracker 3.40 0067  02.08.2006

@<TRIPOS>MOLECULE
ASD03091804
  48   52    0    0    0
SMALL
NO_CHARGES


@<TRIPOS>ATOM
   1 N1             4.5481     4.6047     0.4607 N.pl3   
   2 C2             5.7825     4.1518     0.0843 C.2     
   3 C3             5.8038     2.8085     0.1103 C.2     
   4 C4             4.4766     2.3681     0.5376 C.ar    
   5 C5             3.8868     1.1091     0.7534 C.ar    
   6 C6             2.5636     1.0386     1.1705 C.ar    
   7 C7             1.8330     2.1981     1.3716 C.ar    
   8 C8             2.4016     3.4366     1.1629 C.ar    
   9 C9             3.7250     3.5375     0.7450 C.ar    
  10 C10            4.6692    -0.1295     0.5375 C.ar    
  11 C11            4.0715    -1.3708     0.7554 C.ar    
  12 C12            4.8125    -2.5198     0.5503 C.ar    
  13 C13            6.1347    -2.3914     0.1317 C.ar    
  14 C14            6.6641    -1.1238    -0.0654 C.ar    
  15 N15            5.9308    -0.0478     0.1333 N.ar    
  16 O16            6.8981    -3.4954    -0.0811 O.3     
  17 C17            6.3852    -7.1829    -0.5717 C.3     
  18 C18            7.0015    -5.7960    -0.8154 C.3     
  19 C19            6.2496    -4.7639     0.0298 C.3     
  20 C20            6.2401    -5.2047     1.4963 C.3     
  21 C21            5.6753    -6.6316     1.5833 C.3     
  22 C22            4.3803    -6.6799     0.7400 C.3     
  23 C23            4.8494    -7.0442    -0.6840 C.3     
  24 N24            6.6178    -7.5237     0.8570 N.3     
  25 C25            6.3119    -8.9367     1.1177 C.3     
  26 H26            4.2918     5.5382     0.5222 H       
  27 H27            6.6160     4.7803    -0.1927 H       
  28 H28            6.6420     2.1743    -0.1379 H       
  29 H29            2.1028     0.0763     1.3382 H       
  30 H30            0.8049     2.1311     1.6955 H       
  31 H31            1.8182     4.3310     1.3242 H       
  32 H32            3.0434    -1.4335     1.0803 H       
  33 H33            4.3763    -3.4945     0.7113 H       
  34 H34            7.6888    -1.0183    -0.3899 H       
  35 H35            6.7821    -7.9343    -1.2543 H       
  36 H36            8.0526    -5.8079    -0.5272 H       
  37 H37            6.9134    -5.5377    -1.8707 H       
  38 H38            5.2239    -4.6792    -0.3292 H       
  39 H39            7.2569    -5.1900     1.8885 H       
  40 H40            5.6132    -4.5279     2.0769 H       
  41 H41            5.5079    -6.9448     2.6138 H       
  42 H42            3.7056    -7.4448     1.1244 H       
  43 H43            3.8908    -5.7061     0.7405 H       
  44 H44            4.5905    -6.2495    -1.3836 H       
  45 H45            4.4054    -7.9882    -0.9998 H       
  46 H46            6.9513    -9.5669     0.4995 H       
  47 H47            6.4906    -9.1590     2.1697 H       
  48 H48            5.2670    -9.1326     0.8773 H       
@<TRIPOS>BOND
   1    1    2 1
   2    1    9 1
   3    1   26 1
   4    2    3 2
   5    2   27 1
   6    3    4 1
   7    3   28 1
   8    4    5 ar
   9    4    9 ar
  10    5    6 ar
  11    5   10 1
  12    6    7 ar
  13    6   29 1
  14    7    8 ar
  15    7   30 1
  16    8    9 ar
  17    8   31 1
  18   10   11 ar
  19   10   15 ar
  20   11   12 ar
  21   11   32 1
  22   12   13 ar
  23   12   33 1
  24   13   14 ar
  25   13   16 1
  26   14   15 ar
  27   14   34 1
  28   16   19 1
  29   17   18 1
  30   17   23 1
  31   17   24 1
  32   17   35 1
  33   18   19 1
  34   18   36 1
  35   18   37 1
  36   19   20 1
  37   19   38 1
  38   20   21 1
  39   20   39 1
  40   20   40 1
  41   21   22 1
  42   21   24 1
  43   21   41 1
  44   22   23 1
  45   22   42 1
  46   22   43 1
  47   23   44 1
  48   23   45 1
  49   24   25 1
  50   25   46 1
  51   25   47 1
  52   25   48 1

#	End of record

