#	Name: ASD01911514
#	Creating user name:	WinNT
#	Creation time:	15. 06. 2019 19:57

#	Modifying user name:	WinNT
#	Modification time:	15. 06. 2019 19:57

#	Program:	/corina/corina34_cracker 3.40 0067  02.08.2006

@<TRIPOS>MOLECULE
ASD01911514
  41   43    0    0    0
SMALL
NO_CHARGES


@<TRIPOS>ATOM
   1 C1            -0.0161     1.3372     0.0094 C.2     
   2 N2             0.0021    -0.0041     0.0020 N.am    
   3 C3             1.2623    -0.7483    -0.0265 C.3     
   4 C4             2.3522     0.0821     0.6598 C.3     
   5 C5             2.4273     1.4505    -0.0259 C.3     
   6 N6             1.1039     2.0753     0.0027 N.am    
   7 C7             1.0059     3.4599     0.0227 C.ar    
   8 N8            -0.1950     4.0188     0.0480 N.ar    
   9 C9            -0.3320     5.3321     0.0676 C.ar    
  10 C10            0.8166     6.1348     0.0613 C.ar    
  11 C11            2.0668     5.5023     0.0343 C.ar    
  12 N12            2.1162     4.1827     0.0213 N.ar    
  13 O13           -1.0903     1.9064     0.0175 O.2     
  14 C14            1.0889    -2.0761     0.7136 C.3     
  15 C15            1.6635    -1.0189    -1.4779 C.3     
  16 C16            0.7155     7.5630     0.0815 C.1     
  17 C17            0.6327     8.7340     0.0981 C.1     
  18 C18            0.5316    10.1623     0.1182 C.ar    
  19 C19            1.6889    10.9493     0.1116 C.ar    
  20 C20            1.5835    12.3265     0.1307 C.ar    
  21 C21            0.3380    12.9280     0.1568 C.ar    
  22 C22           -0.8123    12.1553     0.1635 C.ar    
  23 C23           -0.7227    10.7769     0.1388 C.ar    
  24 F24           -2.0244    12.7514     0.1894 F       
  25 F25            2.9061    10.3636     0.0871 F       
  26 H26           -0.8369    -0.4907     0.0162 H       
  27 H27            2.1036     0.2135     1.7129 H       
  28 H28            3.3119    -0.4265     0.5682 H       
  29 H29            3.1406     2.0836     0.5018 H       
  30 H30            2.7477     1.3227    -1.0599 H       
  31 H31           -1.3143     5.7806     0.0879 H       
  32 H32            2.9760     6.0851     0.0286 H       
  33 H33            0.3095    -2.6635     0.2282 H       
  34 H34            2.0277    -2.6295     0.6918 H       
  35 H35            0.8059    -1.8812     1.7480 H       
  36 H36            1.7894    -0.0719    -2.0028 H       
  37 H37            2.6019    -1.5731    -1.4982 H       
  38 H38            0.8851    -1.6046    -1.9669 H       
  39 H39            2.4757    12.9351     0.1256 H       
  40 H40            0.2618    14.0052     0.1723 H       
  41 H41           -1.6200    10.1759     0.1395 H       
@<TRIPOS>BOND
   1    1    2 am
   2    1    6 am
   3    1   13 2
   4    2    3 1
   5    2   26 1
   6    3    4 1
   7    3   14 1
   8    3   15 1
   9    4    5 1
  10    4   27 1
  11    4   28 1
  12    5    6 1
  13    5   29 1
  14    5   30 1
  15    6    7 1
  16    7    8 ar
  17    7   12 ar
  18    8    9 ar
  19    9   10 ar
  20    9   31 1
  21   10   11 ar
  22   10   16 1
  23   11   12 ar
  24   11   32 1
  25   14   33 1
  26   14   34 1
  27   14   35 1
  28   15   36 1
  29   15   37 1
  30   15   38 1
  31   16   17 3
  32   17   18 1
  33   18   19 ar
  34   18   23 ar
  35   19   20 ar
  36   19   25 1
  37   20   21 ar
  38   20   39 1
  39   21   22 ar
  40   21   40 1
  41   22   23 ar
  42   22   24 1
  43   23   41 1

#	End of record

