#	Name: ASD01917951
#	Creating user name:	WinNT
#	Creation time:	15. 06. 2019 20:10

#	Modifying user name:	WinNT
#	Modification time:	15. 06. 2019 20:10

#	Program:	/corina/corina34_cracker 3.40 0067  02.08.2006

@<TRIPOS>MOLECULE
ASD01917951
  40   42    0    0    0
SMALL
NO_CHARGES


@<TRIPOS>ATOM
   1 C1            -0.1240     1.2282    -0.0886 C.ar    
   2 C2            -0.2494    -0.0064    -0.7117 C.ar    
   3 C3             0.8468    -0.8422    -0.8286 C.ar    
   4 C4             2.0734    -0.4532    -0.3264 C.ar    
   5 C5             2.2083     0.7863     0.3010 C.ar    
   6 C6             1.1012     1.6277     0.4183 C.ar    
   7 O7            -1.2030     2.0473     0.0189 O.3     
   8 C8            -2.0022     1.9100     1.1095 C.ar    
   9 C9             3.5191     1.2059     0.8401 C.2     
  10 N10            4.5866     0.3911     0.7264 N.am    
  11 O11            3.6342     2.2859     1.3861 O.2     
  12 N12           -3.9333     2.4752     2.3023 N.ar    
  13 C13           -3.1826     2.6370     1.2251 C.ar    
  14 C14           -1.6639     1.0345     2.1363 C.ar    
  15 N15           -2.4681     0.9293     3.1813 N.ar    
  16 C16           -3.5756     1.6397     3.2567 C.ar    
  17 Cl17           0.6803    -2.3843    -1.6081 Cl      
  18 C18            5.8183     0.7853     1.2330 C.2     
  19 N19            6.9058     0.0823     1.1719 N.2     
  20 S20            6.1226     2.2716     2.0213 S.3     
  21 C21            7.8114     1.8209     2.2418 C.2     
  22 C22            7.9905     0.6121     1.7058 C.2     
  23 C23            9.3237    -0.0904     1.7078 C.3     
  24 C24            9.1713    -1.4719     2.3476 C.3     
  25 C25           10.5249    -2.1851     2.3497 C.3     
  26 H26           -1.2062    -0.3154    -1.1061 H       
  27 H27            2.9274    -1.1079    -0.4187 H       
  28 H28            1.1998     2.5879     0.9027 H       
  29 H29            4.4947    -0.4707     0.2907 H       
  30 H30           -3.4816     3.3237     0.4470 H       
  31 H31           -0.7580     0.4491     2.0810 H       
  32 H32           -4.2107     1.5306     4.1234 H       
  33 H33            8.5700     2.4199     2.7236 H       
  34 H34            9.6773    -0.2018     0.6828 H       
  35 H35           10.0430     0.4969     2.2786 H       
  36 H36            8.8177    -1.3606     3.3726 H       
  37 H37            8.4520    -2.0592     1.7769 H       
  38 H38           10.8785    -2.2964     1.3247 H       
  39 H39           11.2442    -1.5977     2.9204 H       
  40 H40           10.4163    -3.1693     2.8055 H       
@<TRIPOS>BOND
   1    1    2 ar
   2    1    6 ar
   3    1    7 1
   4    2    3 ar
   5    2   26 1
   6    3    4 ar
   7    3   17 1
   8    4    5 ar
   9    4   27 1
  10    5    6 ar
  11    5    9 1
  12    6   28 1
  13    7    8 1
  14    8   14 ar
  15    8   13 ar
  16    9   10 am
  17    9   11 2
  18   10   18 1
  19   10   29 1
  20   12   13 ar
  21   12   16 ar
  22   13   30 1
  23   14   15 ar
  24   14   31 1
  25   15   16 ar
  26   16   32 1
  27   18   20 1
  28   18   19 2
  29   19   22 1
  30   20   21 1
  31   21   22 2
  32   21   33 1
  33   22   23 1
  34   23   24 1
  35   23   34 1
  36   23   35 1
  37   24   25 1
  38   24   36 1
  39   24   37 1
  40   25   38 1
  41   25   39 1
  42   25   40 1

#	End of record

