#	Name: ASD01890377
#	Creating user name:	WinNT
#	Creation time:	15. 06. 2019 19:50

#	Modifying user name:	WinNT
#	Modification time:	15. 06. 2019 19:50

#	Program:	/corina/corina34_cracker 3.40 0067  02.08.2006

@<TRIPOS>MOLECULE
ASD01890377
  44   45    0    0    0
SMALL
NO_CHARGES


@<TRIPOS>ATOM
   1 C1             0.1791     1.5287     0.0760 C.2     
   2 C2             0.1167     0.0248     0.0033 C.3     
   3 C3             1.5356    -0.5467     0.0357 C.3     
   4 O4             1.2487     2.0863     0.1464 O.2     
   5 O5            -0.9533     2.2491     0.0569 O.3     
   6 C6             1.4953    -2.6270    -1.2324 C.2     
   7 C7             1.5589    -4.1310    -1.3029 C.3     
   8 O8             1.4626    -1.9729    -2.2533 O.2     
   9 N9             1.4749    -2.0088    -0.0350 N.am    
  10 C10            1.3956    -2.7636     1.1411 C.ar    
  11 C11            2.4615    -2.7787     2.0310 C.ar    
  12 C12            2.3806    -3.5239     3.1910 C.ar    
  13 C13            1.2387    -4.2555     3.4665 C.ar    
  14 C14            0.1753    -4.2425     2.5812 C.ar    
  15 C15            0.2487    -3.4940     1.4228 C.ar    
  16 Cl16           1.1404    -5.1916     4.9252 Cl      
  17 C17            1.4525    -4.5715    -2.7402 C.ar    
  18 C18            2.5952    -4.7182    -3.5043 C.ar    
  19 C19            2.4982    -5.1221    -4.8225 C.ar    
  20 C20            1.2573    -5.3797    -5.3773 C.ar    
  21 C21            0.1140    -5.2327    -4.6121 C.ar    
  22 C22            0.2127    -4.8342    -3.2923 C.ar    
  23 Cl23           1.1346    -5.8866    -7.0331 Cl      
  24 C24           -0.8174     3.6929     0.1302 C.3     
  25 C25           -2.2042     4.3381     0.0959 C.3     
  26 H26           -0.4482    -0.3569     0.8538 H       
  27 H27           -0.3744    -0.2742    -0.9227 H       
  28 H28            2.1005    -0.1650    -0.8148 H       
  29 H29            2.0267    -0.2478     0.9617 H       
  30 H30            2.5059    -4.4746    -0.8868 H       
  31 H31            0.7348    -4.5567    -0.7305 H       
  32 H32            3.3532    -2.2085     1.8160 H       
  33 H33            3.2093    -3.5361     3.8834 H       
  34 H34           -0.7146    -4.8146     2.7984 H       
  35 H35           -0.5833    -3.4806     0.7343 H       
  36 H36            3.5638    -4.5167    -3.0712 H       
  37 H37            3.3910    -5.2363    -5.4194 H       
  38 H38           -0.8550    -5.4337    -5.0446 H       
  39 H39           -0.6794    -4.7237    -2.6936 H       
  40 H40           -0.3135     3.9638     1.0580 H       
  41 H41           -0.2312     4.0462    -0.7181 H       
  42 H42           -2.7081     4.0672    -0.8320 H       
  43 H43           -2.7904     3.9848     0.9442 H       
  44 H44           -2.1022     5.4219     0.1509 H       
@<TRIPOS>BOND
   1    1    2 1
   2    1    4 2
   3    1    5 1
   4    2    3 1
   5    2   26 1
   6    2   27 1
   7    3    9 1
   8    3   28 1
   9    3   29 1
  10    5   24 1
  11    6    7 1
  12    6    8 2
  13    6    9 am
  14    7   17 1
  15    7   30 1
  16    7   31 1
  17    9   10 1
  18   10   11 ar
  19   10   15 ar
  20   11   12 ar
  21   11   32 1
  22   12   13 ar
  23   12   33 1
  24   13   14 ar
  25   13   16 1
  26   14   15 ar
  27   14   34 1
  28   15   35 1
  29   17   18 ar
  30   17   22 ar
  31   18   19 ar
  32   18   36 1
  33   19   20 ar
  34   19   37 1
  35   20   21 ar
  36   20   23 1
  37   21   22 ar
  38   21   38 1
  39   22   39 1
  40   24   25 1
  41   24   40 1
  42   24   41 1
  43   25   42 1
  44   25   43 1
  45   25   44 1

#	End of record

