#	Name: ASD08170406
#	Creating user name:	WinNT
#	Creation time:	15. 06. 2019 21:17

#	Modifying user name:	WinNT
#	Modification time:	15. 06. 2019 21:17

#	Program:	/corina/corina34_cracker 3.40 0067  02.08.2006

@<TRIPOS>MOLECULE
ASD08170406
  63   66    0    0    0
SMALL
NO_CHARGES


@<TRIPOS>ATOM
   1 N1            -0.0150     1.2583     0.0090 N.2     
   2 N2             0.0021    -0.0041     0.0020 N.2     
   3 C3             1.1605    -0.5914    -0.0122 C.2     
   4 S4             2.3840     0.6077    -0.0174 S.3     
   5 C5             1.1353     1.8535     0.0012 C.2     
   6 C6             1.3656     3.3428     0.0065 C.3     
   7 C7             1.4576     3.8394     1.4507 C.3     
   8 S8             1.7348     5.6321     1.4572 S.3     
   9 C9             1.8145     6.0263     3.2260 C.3     
  10 C10            2.0484     7.5279     3.4039 C.3     
  11 C11            2.1146     7.8554     4.8734 C.2     
  12 S12            0.7527     8.2991     5.9028 S.3     
  13 C13            1.8268     8.4405     7.2298 C.2     
  14 N14            3.0291     8.1643     6.8235 N.2     
  15 N15            3.1810     7.8562     5.6086 N.2     
  16 N16            1.4704     8.7928     8.5272 N.am    
  17 C17            2.4130     8.8700     9.4875 C.2     
  18 O18            3.5719     8.6323     9.2202 O.2     
  19 C19            2.0268     9.2517    10.8933 C.3     
  20 C20            3.2556     9.2652    11.7656 C.ar    
  21 C21            3.9948    10.4255    11.9006 C.ar    
  22 C22            5.1219    10.4379    12.7007 C.ar    
  23 C23            5.5097     9.2900    13.3663 C.ar    
  24 C24            4.7700     8.1299    13.2320 C.ar    
  25 C25            3.6404     8.1188    12.4353 C.ar    
  26 N26            1.3725    -1.9658    -0.0209 N.am    
  27 C27            0.3217    -2.8098    -0.0151 C.2     
  28 C28            0.5514    -4.2992    -0.0246 C.3     
  29 O29           -0.8087    -2.3706    -0.0024 O.2     
  30 C30           -0.7761    -5.0123    -0.0156 C.ar    
  31 C31            1.3302    -4.6871    -1.2831 C.3     
  32 O32            2.6339    -4.1038    -1.2353 O.3     
  33 C33           -1.0921    -5.8717     1.0200 C.ar    
  34 C34           -2.3098    -6.5258     1.0283 C.ar    
  35 C35           -3.2118    -6.3202     0.0011 C.ar    
  36 C36           -2.8963    -5.4601    -1.0340 C.ar    
  37 C37           -1.6803    -4.8026    -1.0400 C.ar    
  38 H38            2.2955     3.5685    -0.5153 H       
  39 H39            0.5365     3.8404    -0.4967 H       
  40 H40            0.5277     3.6137     1.9726 H       
  41 H41            2.2866     3.3418     1.9539 H       
  42 H42            0.8756     5.7459     3.7035 H       
  43 H43            2.6345     5.4740     3.6848 H       
  44 H44            2.9873     7.8083     2.9265 H       
  45 H45            1.2284     8.0802     2.9451 H       
  46 H46            0.5436     8.9829     8.7409 H       
  47 H47            1.5733    10.2429    10.8891 H       
  48 H48            1.3123     8.5269    11.2833 H       
  49 H49            3.6918    11.3223    11.3806 H       
  50 H50            5.6998    11.3442    12.8056 H       
  51 H51            6.3907     9.2995    13.9908 H       
  52 H52            5.0732     7.2331    13.7518 H       
  53 H53            3.0625     7.2124    12.3305 H       
  54 H54            2.2766    -2.3171    -0.0311 H       
  55 H55            1.1230    -4.5842     0.8587 H       
  56 H56            1.4194    -5.7722    -1.3351 H       
  57 H57            0.8015    -4.3233    -2.1641 H       
  58 H58            3.1847    -4.3084    -2.0033 H       
  59 H59           -0.3874    -6.0323     1.8225 H       
  60 H60           -2.5564    -7.1978     1.8370 H       
  61 H61           -4.1629    -6.8318     0.0072 H       
  62 H62           -3.6008    -5.2997    -1.8366 H       
  63 H63           -1.4337    -4.1306    -1.8487 H       
@<TRIPOS>BOND
   1    1    2 1
   2    1    5 2
   3    2    3 2
   4    3    4 1
   5    3   26 1
   6    4    5 1
   7    5    6 1
   8    6    7 1
   9    6   38 1
  10    6   39 1
  11    7    8 1
  12    7   40 1
  13    7   41 1
  14    8    9 1
  15    9   10 1
  16    9   42 1
  17    9   43 1
  18   10   11 1
  19   10   44 1
  20   10   45 1
  21   11   12 1
  22   11   15 2
  23   12   13 1
  24   13   14 2
  25   13   16 1
  26   14   15 1
  27   16   17 am
  28   16   46 1
  29   17   18 2
  30   17   19 1
  31   19   20 1
  32   19   47 1
  33   19   48 1
  34   20   21 ar
  35   20   25 ar
  36   21   22 ar
  37   21   49 1
  38   22   23 ar
  39   22   50 1
  40   23   24 ar
  41   23   51 1
  42   24   25 ar
  43   24   52 1
  44   25   53 1
  45   26   27 am
  46   26   54 1
  47   27   28 1
  48   27   29 2
  49   28   30 1
  50   28   31 1
  51   28   55 1
  52   30   33 ar
  53   30   37 ar
  54   31   32 1
  55   31   56 1
  56   31   57 1
  57   32   58 1
  58   33   34 ar
  59   33   59 1
  60   34   35 ar
  61   34   60 1
  62   35   36 ar
  63   35   61 1
  64   36   37 ar
  65   36   62 1
  66   37   63 1

#	End of record

