#	Name: ASD01882110
#	Creating user name:	WinNT
#	Creation time:	15. 06. 2019 19:43

#	Modifying user name:	WinNT
#	Modification time:	15. 06. 2019 19:43

#	Program:	/corina/corina34_cracker 3.40 0067  02.08.2006

@<TRIPOS>MOLECULE
ASD01882110
  56   59    0    0    0
SMALL
NO_CHARGES


@<TRIPOS>ATOM
   1 C1            -0.4018     0.7209    -1.0991 C.2     
   2 C2             0.0021    -0.0041     0.0020 C.2     
   3 C3            -0.8241    -0.0444     1.1454 C.2     
   4 C4            -1.9959     0.6200     1.1588 C.2     
   5 N5            -2.4054     1.3405     0.0735 N.pl3   
   6 C6            -1.6285     1.4091    -1.0540 C.2     
   7 C7            -3.5287     2.0906    -0.1689 C.2     
   8 C8            -3.4154     2.5860    -1.4191 C.2     
   9 N9            -2.2598     2.1659    -1.9426 N.2     
  10 N10            1.2139    -0.6906    -0.0142 N.pl3   
  11 Cl11           0.5934     0.7897    -2.5199 Cl      
  12 C12           -4.6744     2.3186     0.7831 C.3     
  13 C13            1.2456    -2.1560     0.0878 C.3     
  14 C14            2.1779    -2.5502     1.2377 C.3     
  15 C15            3.5489    -1.9054     1.0214 C.3     
  16 C16            3.4033    -0.3819     1.0182 C.3     
  17 C17            2.4845     0.0364    -0.1398 C.3     
  18 C18            4.4790    -2.3185     2.1328 C.ar    
  19 C19            5.6428    -3.0050     1.8409 C.ar    
  20 C20            4.1711    -2.0061     3.4437 C.ar    
  21 C21            5.0243    -2.3851     4.4632 C.ar    
  22 C22            6.1850    -3.0769     4.1719 C.ar    
  23 C23            6.4959    -3.3840     2.8604 C.ar    
  24 C24            7.1154    -3.4895     5.2833 C.3     
  25 C25            8.5517    -3.5295     4.7577 C.3     
  26 O26            7.0260    -2.5473     6.3539 O.3     
  27 C27            6.7193    -4.8774     5.7910 C.3     
  28 C28           -5.7838     1.3042     0.4982 C.3     
  29 F29           -5.2858     0.0081     0.6697 F       
  30 F30           -6.8475     1.5158     1.3820 F       
  31 F31           -6.2325     1.4611    -0.8176 F       
  32 H32           -0.5160    -0.6099     2.0123 H       
  33 H33           -2.6200     0.5819     2.0394 H       
  34 H34           -4.1374     3.2191    -1.9133 H       
  35 H35           -4.3249     2.1964     1.8083 H       
  36 H36           -5.0624     3.3284     0.6495 H       
  37 H37            0.2414    -2.5302     0.2870 H       
  38 H38            1.6171    -2.5793    -0.8454 H       
  39 H39            1.7578    -2.2036     2.1818 H       
  40 H40            2.2858    -3.6345     1.2632 H       
  41 H41            3.9576    -2.2331     0.0655 H       
  42 H42            2.9716    -0.0558     1.9644 H       
  43 H43            4.3833     0.0769     0.8875 H       
  44 H44            2.9594    -0.2085    -1.0898 H       
  45 H45            2.2971     1.1089    -0.0883 H       
  46 H46            5.8854    -3.2455     0.8163 H       
  47 H47            3.2642    -1.4656     3.6713 H       
  48 H48            4.7841    -2.1403     5.4874 H       
  49 H49            7.4028    -3.9245     2.6328 H       
  50 H50            8.8339    -2.5407     4.3960 H       
  51 H51            9.2246    -3.8280     5.5616 H       
  52 H52            8.6199    -4.2482     3.9411 H       
  53 H53            6.1413    -2.4694     6.7365 H       
  54 H54            6.7875    -5.5962     4.9744 H       
  55 H55            7.3922    -5.1759     6.5949 H       
  56 H56            5.6961    -4.8490     6.1655 H       
@<TRIPOS>BOND
   1    1    2 2
   2    1   11 1
   3    1    6 1
   4    2    3 1
   5    2   10 1
   6    3    4 2
   7    3   32 1
   8    4    5 1
   9    4   33 1
  10    5    6 1
  11    5    7 1
  12    6    9 2
  13    7    8 2
  14    7   12 1
  15    8    9 1
  16    8   34 1
  17   10   13 1
  18   10   17 1
  19   12   28 1
  20   12   35 1
  21   12   36 1
  22   13   14 1
  23   13   37 1
  24   13   38 1
  25   14   15 1
  26   14   39 1
  27   14   40 1
  28   15   16 1
  29   15   18 1
  30   15   41 1
  31   16   17 1
  32   16   42 1
  33   16   43 1
  34   17   44 1
  35   17   45 1
  36   18   19 ar
  37   18   20 ar
  38   19   23 ar
  39   19   46 1
  40   20   21 ar
  41   20   47 1
  42   21   22 ar
  43   21   48 1
  44   22   23 ar
  45   22   24 1
  46   23   49 1
  47   24   25 1
  48   24   26 1
  49   24   27 1
  50   25   50 1
  51   25   51 1
  52   25   52 1
  53   26   53 1
  54   27   54 1
  55   27   55 1
  56   27   56 1
  57   28   29 1
  58   28   30 1
  59   28   31 1

#	End of record

