#	Name: ASD08170393
#	Creating user name:	WinNT
#	Creation time:	15. 06. 2019 21:17

#	Modifying user name:	WinNT
#	Modification time:	15. 06. 2019 21:17

#	Program:	/corina/corina34_cracker 3.40 0067  02.08.2006

@<TRIPOS>MOLECULE
ASD08170393
  69   72    0    0    0
SMALL
NO_CHARGES


@<TRIPOS>ATOM
   1 N1            -0.0156     1.2977     0.0092 N.2     
   2 C2             0.0021    -0.0041     0.0020 C.2     
   3 S3             1.6908    -0.5171    -0.0169 S.3     
   4 C4             2.1706     1.1813    -0.0123 C.2     
   5 N5             1.0934     1.8979     0.0018 N.2     
   6 C6             7.9365     3.2705     4.7950 C.2     
   7 S7             7.6707     4.6840     5.8176 S.3     
   8 C8             8.3504     3.7857     7.1764 C.2     
   9 N9             8.6802     2.6031     6.7431 N.2     
  10 N10            8.4619     2.3431     5.5286 N.2     
  11 C11            9.2073     3.9589    10.7991 C.ar    
  12 C12           -3.5281    -1.1982     0.0288 C.ar    
  13 C13            8.8075     5.2570    11.1260 C.ar    
  14 C14            8.9626     5.7220    12.4140 C.ar    
  15 C15            9.5153     4.9031    13.3891 C.ar    
  16 C16            9.9160     3.6064    13.0699 C.ar    
  17 C17            9.7585     3.1323    11.7822 C.ar    
  18 C18           -4.8147    -0.6524     0.0435 C.ar    
  19 C19           -5.9153    -1.4868     0.0496 C.ar    
  20 C20           -5.7414    -2.8701     0.0411 C.ar    
  21 C21           -4.4635    -3.4121     0.0265 C.ar    
  22 C22           -3.3611    -2.5852     0.0145 C.ar    
  23 N23           -1.1087    -0.8393     0.0081 N.am    
  24 C24           -2.3487    -0.3114     0.0223 C.2     
  25 O25           -2.4956     0.8956     0.0297 O.2     
  26 N26            8.5057     4.2560     8.4749 N.am    
  27 C27            9.0425     3.4595     9.4204 C.2     
  28 O28            9.3909     2.3295     9.1373 O.2     
  29 O29           -6.8246    -3.6892     0.0475 O.3     
  30 C30           -6.5742    -5.0961     0.0381 C.3     
  31 O31           10.4576     2.8068    14.0275 O.3     
  32 C32           10.8457     1.4902    13.6300 C.3     
  33 O33           -7.1687    -0.9591     0.0643 O.3     
  34 C34           -7.2724     0.4661     0.0729 C.3     
  35 C35            3.5840     1.7040    -0.0230 C.3     
  36 C36            4.0761     1.8731     1.4158 C.3     
  37 S37            5.7775     2.5023     1.4029 S.3     
  38 C38            6.1771     2.6344     3.1674 C.3     
  39 C39            7.6045     3.1608     3.3291 C.3     
  40 O40            9.6664     5.3662    14.6567 O.3     
  41 C41            9.2353     6.7040    14.9144 C.3     
  42 H42            8.3772     5.8962    10.3693 H       
  43 H43            8.6538     6.7260    12.6651 H       
  44 H44           10.0685     2.1281    11.5335 H       
  45 H45           -4.9480     0.4193     0.0505 H       
  46 H46           -4.3330    -4.4841     0.0199 H       
  47 H47           -2.3680    -3.0094     0.0028 H       
  48 H48           -0.9915    -1.8022     0.0022 H       
  49 H49            8.2277     5.1575     8.7007 H       
  50 H50           -6.0133    -5.3593    -0.8586 H       
  51 H51           -5.9961    -5.3681     0.9212 H       
  52 H52           -7.5223    -5.6339     0.0446 H       
  53 H53           11.2615     0.9598    14.4867 H       
  54 H54            9.9746     0.9517    13.2570 H       
  55 H55           11.5972     1.5550    12.8431 H       
  56 H56           -6.7949     0.8706    -0.8196 H       
  57 H57           -8.3237     0.7538     0.0844 H       
  58 H58           -6.7779     0.8611     0.9603 H       
  59 H59            4.2285     0.9981    -0.5468 H       
  60 H60            3.6113     2.6675    -0.5320 H       
  61 H61            3.4316     2.5791     1.9396 H       
  62 H62            4.0489     0.9096     1.9247 H       
  63 H63            5.4800     3.3213     3.6474 H       
  64 H64            6.0973     1.6518     3.6325 H       
  65 H65            7.6843     4.1433     2.8639 H       
  66 H66            8.3016     2.4739     2.8491 H       
  67 H67            9.7939     7.3940    14.2820 H       
  68 H68            8.1710     6.7912    14.6957 H       
  69 H69            9.4120     6.9472    15.9622 H       
@<TRIPOS>BOND
   1    1    2 2
   2    1    5 1
   3    2    3 1
   4    2   23 1
   5    3    4 1
   6    4    5 2
   7    4   35 1
   8    6    7 1
   9    6   39 1
  10    6   10 2
  11    7    8 1
  12    8    9 2
  13    8   26 1
  14    9   10 1
  15   11   13 ar
  16   11   27 1
  17   11   17 ar
  18   12   18 ar
  19   12   24 1
  20   12   22 ar
  21   13   14 ar
  22   13   42 1
  23   14   15 ar
  24   14   43 1
  25   15   16 ar
  26   15   40 1
  27   16   17 ar
  28   16   31 1
  29   17   44 1
  30   18   19 ar
  31   18   45 1
  32   19   20 ar
  33   19   33 1
  34   20   21 ar
  35   20   29 1
  36   21   22 ar
  37   21   46 1
  38   22   47 1
  39   23   24 am
  40   23   48 1
  41   24   25 2
  42   26   27 am
  43   26   49 1
  44   27   28 2
  45   29   30 1
  46   30   50 1
  47   30   51 1
  48   30   52 1
  49   31   32 1
  50   32   53 1
  51   32   54 1
  52   32   55 1
  53   33   34 1
  54   34   56 1
  55   34   57 1
  56   34   58 1
  57   35   36 1
  58   35   59 1
  59   35   60 1
  60   36   37 1
  61   36   61 1
  62   36   62 1
  63   37   38 1
  64   38   39 1
  65   38   63 1
  66   38   64 1
  67   39   65 1
  68   39   66 1
  69   40   41 1
  70   41   67 1
  71   41   68 1
  72   41   69 1

#	End of record

