#	Name: ASD01900966
#	Creating user name:	WinNT
#	Creation time:	15. 06. 2019 19:52

#	Modifying user name:	WinNT
#	Modification time:	15. 06. 2019 19:52

#	Program:	/corina/corina34_cracker 3.40 0067  02.08.2006

@<TRIPOS>MOLECULE
ASD01900966
  67   72    0    0    0
SMALL
NO_CHARGES


@<TRIPOS>ATOM
   1 C1             0.1948     0.8132    -0.3993 C.ar    
   2 C2             0.3759    -0.5412    -0.4322 C.ar    
   3 C3             1.6609    -1.0834    -0.5108 C.ar    
   4 C4             2.7746    -0.2470    -0.5487 C.ar    
   5 C5             2.5974     1.1236    -0.5106 C.ar    
   6 C6             1.2991     1.6625    -0.4454 C.ar    
   7 N7             3.6764     2.0010    -0.5279 N.pl3   
   8 C8             3.4904     3.3405    -1.0976 C.3     
   9 N9             2.2194     3.9101    -0.6491 N.am    
  10 C10            1.1472     3.1276    -0.4160 C.2     
  11 C11            2.1154     5.2935    -0.4583 C.ar    
  12 C12            1.4641     6.0778    -1.4012 C.ar    
  13 C13            1.3615     7.4418    -1.2120 C.ar    
  14 C14            1.9092     8.0287    -0.0807 C.ar    
  15 C15            2.5604     7.2459     0.8615 C.ar    
  16 C16            2.6584     5.8809     0.6768 C.ar    
  17 O17            0.0629     3.6269    -0.1829 O.2     
  18 O18            1.8082     9.3719     0.1047 O.3     
  19 C19            1.8404    -2.5551    -0.5535 C.ar    
  20 C20            4.6418     4.2438    -0.6460 C.3     
  21 C21            3.4970     3.2458    -2.6258 C.3     
  22 C22            3.3778     4.6512    -3.2198 C.3     
  23 N23            4.5009     5.4767    -2.7579 N.3     
  24 C24            4.4886     5.6204    -1.2965 C.3     
  25 C25            4.4947     6.7899    -3.4161 C.3     
  26 C26            5.6065     7.6384    -2.8549 C.ar    
  27 C27            6.8926     7.5031    -3.3438 C.ar    
  28 C28            7.9140     8.2798    -2.8304 C.ar    
  29 C29            7.6498     9.1947    -1.8260 C.ar    
  30 C30            6.3600     9.3308    -1.3359 C.ar    
  31 C31            5.3383     8.5551    -1.8558 C.ar    
  32 C32            0.7239    -3.3855    -0.6205 C.ar    
  33 C33            0.9073    -4.7574    -0.6598 C.ar    
  34 C34            2.2025    -5.2533    -0.6308 C.ar    
  35 C35            3.2656    -4.3706    -0.5639 C.ar    
  36 N36            3.0634    -3.0696    -0.5331 N.ar    
  37 C37            2.3950     9.9090     1.2918 C.3     
  38 F38            8.6478     9.9541    -1.3233 F       
  39 F39            6.0997    10.2228    -0.3552 F       
  40 H40           -0.8021     1.2245    -0.3421 H       
  41 H41           -0.4812    -1.1974    -0.3969 H       
  42 H42            3.7683    -0.6660    -0.6069 H       
  43 H43            4.5367     1.7322    -0.1693 H       
  44 H44            1.0383     5.6211    -2.2824 H       
  45 H45            0.8550     8.0519    -1.9453 H       
  46 H46            2.9872     7.7036     1.7417 H       
  47 H47            3.1615     5.2710     1.4126 H       
  48 H48            4.6179     4.3491     0.4387 H       
  49 H49            5.5912     3.8019    -0.9484 H       
  50 H50            4.4289     2.7882    -2.9581 H       
  51 H51            2.6546     2.6383    -2.9564 H       
  52 H52            3.3967     4.5884    -4.3078 H       
  53 H53            2.4391     5.1026    -2.8986 H       
  54 H54            3.5449     6.0671    -0.9834 H       
  55 H55            5.3140     6.2619    -0.9877 H       
  56 H56            4.6427     6.6597    -4.4881 H       
  57 H57            3.5378     7.2808    -3.2384 H       
  58 H58            7.0994     6.7894    -4.1276 H       
  59 H59            8.9184     8.1727    -3.2127 H       
  60 H60            4.3324     8.6630    -1.4778 H       
  61 H61           -0.2707    -2.9652    -0.6411 H       
  62 H62            0.0610    -5.4263    -0.7115 H       
  63 H63            2.3792    -6.3184    -0.6597 H       
  64 H64            4.2752    -4.7534    -0.5408 H       
  65 H65            1.9260     9.4566     2.1656 H       
  66 H66            3.4631     9.6918     1.2995 H       
  67 H67            2.2434    10.9881     1.3159 H       
@<TRIPOS>BOND
   1    1    2 ar
   2    1    6 ar
   3    1   40 1
   4    2    3 ar
   5    2   41 1
   6    3    4 ar
   7    3   19 1
   8    4    5 ar
   9    4   42 1
  10    5    7 1
  11    5    6 ar
  12    6   10 1
  13    7    8 1
  14    7   43 1
  15    8    9 1
  16    8   21 1
  17    8   20 1
  18    9   10 am
  19    9   11 1
  20   10   17 2
  21   11   12 ar
  22   11   16 ar
  23   12   13 ar
  24   12   44 1
  25   13   14 ar
  26   13   45 1
  27   14   15 ar
  28   14   18 1
  29   15   16 ar
  30   15   46 1
  31   16   47 1
  32   18   37 1
  33   19   32 ar
  34   19   36 ar
  35   20   24 1
  36   20   48 1
  37   20   49 1
  38   21   22 1
  39   21   50 1
  40   21   51 1
  41   22   23 1
  42   22   52 1
  43   22   53 1
  44   23   24 1
  45   23   25 1
  46   24   54 1
  47   24   55 1
  48   25   26 1
  49   25   56 1
  50   25   57 1
  51   26   27 ar
  52   26   31 ar
  53   27   28 ar
  54   27   58 1
  55   28   29 ar
  56   28   59 1
  57   29   30 ar
  58   29   38 1
  59   30   31 ar
  60   30   39 1
  61   31   60 1
  62   32   33 ar
  63   32   61 1
  64   33   34 ar
  65   33   62 1
  66   34   35 ar
  67   34   63 1
  68   35   36 ar
  69   35   64 1
  70   37   65 1
  71   37   66 1
  72   37   67 1

#	End of record

