#	Name: ASD02500285
#	Creating user name:	WinNT
#	Creation time:	15. 06. 2019 20:22

#	Modifying user name:	WinNT
#	Modification time:	15. 06. 2019 20:22

#	Program:	/corina/corina34_cracker 3.40 0067  02.08.2006

@<TRIPOS>MOLECULE
ASD02500285
  77   81    0    0    0
SMALL
NO_CHARGES


@<TRIPOS>ATOM
   1 N1             1.1094     1.7089     1.3080 N.am    
   2 C2             1.0307     0.2415     1.3251 C.3     
   3 C3             1.2321    -0.2768    -0.1043 C.3     
   4 N4             2.4283     0.3619    -0.6711 N.am    
   5 C5             2.5069     1.8293    -0.6882 C.3     
   6 C6             2.3055     2.3475     0.7412 C.3     
   7 C7             0.1002     2.4557     1.7983 C.2     
   8 O8            -0.8860     1.9164     2.2599 O.2     
   9 O9             0.1849     3.7992     1.7767 O.3     
  10 C10            3.4352    -0.3848    -1.1660 C.2     
  11 C11            3.3853    -1.8553    -1.0578 C.ar    
  12 C12            2.1885    -2.5355    -1.3042 C.ar    
  13 C13            2.1462    -3.9110    -1.2023 C.ar    
  14 C14            3.2973    -4.6206    -0.8537 C.ar    
  15 C15            4.4863    -3.9436    -0.6084 C.ar    
  16 C16            4.5350    -2.5710    -0.7145 C.ar    
  17 O17            4.3848     0.1534    -1.7018 O.2     
  18 S18            4.2036    -6.7874     0.3600 S.o2    
  19 O19            4.0779    -6.0606     1.5747 O.2     
  20 O20            3.9010    -8.1712     0.2474 O.2     
  21 N21            3.2538    -6.0091    -0.7510 N.am    
  22 N22            5.4548    -7.8297    -2.1642 N.ar    
  23 C23            5.8463    -8.3487    -3.3025 C.ar    
  24 C24            7.1594    -8.2248    -3.7518 C.ar    
  25 C25            8.0762    -7.5474    -2.9996 C.ar    
  26 C26            7.6521    -6.9909    -1.7780 C.ar    
  27 C27            8.5376    -6.2817    -0.9511 C.ar    
  28 C28            8.0888    -5.7587     0.2234 C.ar    
  29 C29            6.7614    -5.9174     0.6156 C.ar    
  30 C30            5.8763    -6.5998    -0.1611 C.ar    
  31 C31            6.3018    -7.1547    -1.3805 C.ar    
  32 O32            0.9836    -4.5754    -1.4410 O.3     
  33 C33           -0.1545    -3.7859    -1.7925 C.3     
  34 C34           -0.9392     4.5394     2.3216 C.3     
  35 C35           -0.6633     6.0403     2.2112 C.3     
  36 C36           -1.8477     6.8202     2.7853 C.3     
  37 C37           -1.5203     8.3147     2.7895 C.3     
  38 C38           -2.7048     9.0947     3.3637 C.3     
  39 C39           -3.9446     8.8466     2.5021 C.3     
  40 C40           -4.2720     7.3521     2.4978 C.3     
  41 C41           -3.0875     6.5721     1.9237 C.3     
  42 H42            1.8105    -0.1592     1.9728 H       
  43 H43            0.0521    -0.0682     1.6920 H       
  44 H44            1.3688    -1.3580    -0.0855 H       
  45 H45            0.3616    -0.0261    -0.7104 H       
  46 H46            3.4855     2.1390    -1.0551 H       
  47 H47            1.7271     2.2300    -1.3359 H       
  48 H48            2.1688     3.4288     0.7224 H       
  49 H49            3.1761     2.0969     1.3473 H       
  50 H50            1.2990    -1.9853    -1.5735 H       
  51 H51            5.3746    -4.4951    -0.3383 H       
  52 H52            5.4611    -2.0477    -0.5278 H       
  53 H53            2.6671    -6.5201    -1.3303 H       
  54 H54            5.1321    -8.8871    -3.9079 H       
  55 H55            7.4519    -8.6642    -4.6940 H       
  56 H56            9.0982    -7.4420    -3.3324 H       
  57 H57            9.5688    -6.1519    -1.2445 H       
  58 H58            8.7707    -5.2133     0.8590 H       
  59 H59            6.4299    -5.4938     1.5522 H       
  60 H60           -1.0127    -4.4378    -1.9554 H       
  61 H61           -0.3763    -3.0884    -0.9847 H       
  62 H62            0.0574    -3.2292    -2.7053 H       
  63 H63           -1.8417     4.2937     1.7618 H       
  64 H64           -1.0772     4.2715     3.3691 H       
  65 H65            0.2392     6.2859     2.7709 H       
  66 H66           -0.5253     6.3082     1.1636 H       
  67 H67           -2.0416     6.4878     3.8051 H       
  68 H68           -0.6371     8.4915     3.4033 H       
  69 H69           -1.3265     8.6471     1.7697 H       
  70 H70           -2.8986     8.7623     4.3835 H       
  71 H71           -2.4716    10.1594     3.3667 H       
  72 H72           -4.7884     9.4023     2.9111 H       
  73 H73           -3.7507     9.1790     1.4823 H       
  74 H74           -4.4658     7.0197     3.5177 H       
  75 H75           -5.1552     7.1753     1.8840 H       
  76 H76           -2.8936     6.9045     0.9039 H       
  77 H77           -3.3207     5.5074     1.9207 H       
@<TRIPOS>BOND
   1    1    2 1
   2    1    6 1
   3    1    7 am
   4    2    3 1
   5    2   42 1
   6    2   43 1
   7    3    4 1
   8    3   44 1
   9    3   45 1
  10    4    5 1
  11    4   10 am
  12    5    6 1
  13    5   46 1
  14    5   47 1
  15    6   48 1
  16    6   49 1
  17    7    8 2
  18    7    9 1
  19    9   34 1
  20   10   11 1
  21   10   17 2
  22   11   12 ar
  23   11   16 ar
  24   12   13 ar
  25   12   50 1
  26   13   14 ar
  27   13   32 1
  28   14   15 ar
  29   14   21 1
  30   15   16 ar
  31   15   51 1
  32   16   52 1
  33   18   19 2
  34   18   20 2
  35   18   21 am
  36   18   30 1
  37   21   53 1
  38   22   23 ar
  39   22   31 ar
  40   23   24 ar
  41   23   54 1
  42   24   25 ar
  43   24   55 1
  44   25   26 ar
  45   25   56 1
  46   26   27 ar
  47   26   31 ar
  48   27   28 ar
  49   27   57 1
  50   28   29 ar
  51   28   58 1
  52   29   30 ar
  53   29   59 1
  54   30   31 ar
  55   32   33 1
  56   33   60 1
  57   33   61 1
  58   33   62 1
  59   34   35 1
  60   34   63 1
  61   34   64 1
  62   35   36 1
  63   35   65 1
  64   35   66 1
  65   36   37 1
  66   36   41 1
  67   36   67 1
  68   37   38 1
  69   37   68 1
  70   37   69 1
  71   38   39 1
  72   38   70 1
  73   38   71 1
  74   39   40 1
  75   39   72 1
  76   39   73 1
  77   40   41 1
  78   40   74 1
  79   40   75 1
  80   41   76 1
  81   41   77 1

#	End of record

