#	Name: ASD01200239
#	Creating user name:	WinNT
#	Creation time:	15. 06. 2019 19:08

#	Modifying user name:	WinNT
#	Modification time:	15. 06. 2019 19:08

#	Program:	/corina/corina34_cracker 3.40 0067  02.08.2006

@<TRIPOS>MOLECULE
ASD01200239
  45   47    0    0    0
SMALL
NO_CHARGES


@<TRIPOS>ATOM
   1 C1            -0.0184     1.5028     0.0103 C.2     
   2 C2             0.0021    -0.0041     0.0020 C.3     
   3 C3            -0.7241    -0.5171    -1.2431 C.3     
   4 O4             1.0236     2.1234     0.0037 O.2     
   5 N5            -1.1946     2.1607     0.0195 N.am    
   6 S6            -2.6280     4.5107     0.0390 S.3     
   7 C7            -1.2134     3.5506     0.0271 C.2     
   8 N8            -0.1611     4.3074     0.0270 N.2     
   9 C9            -0.3631     5.6117     0.0356 C.2     
  10 C10           -1.6473     5.9742     0.0434 C.2     
  11 C11           -2.1678     7.3884     0.0541 C.3     
  12 O12           -2.3387     7.8433    -1.2897 O.3     
  13 C13            1.4295    -0.4870    -0.0142 C.ar    
  14 C14            1.9019    -1.2811     1.0141 C.ar    
  15 C15            3.2117    -1.7249     0.9994 C.ar    
  16 C16            4.0494    -1.3734    -0.0458 C.ar    
  17 C17            3.5751    -0.5789    -1.0738 C.ar    
  18 C18            2.2641    -0.1405    -1.0601 C.ar    
  19 Cl19           5.6939    -1.9291    -0.0655 Cl      
  20 Cl20           3.8055    -2.7217     2.2908 Cl      
  21 C21           -0.8126    -2.0436    -1.1892 C.3     
  22 C22           -1.6487    -2.5652    -2.3710 C.3     
  23 C23           -0.7214    -3.4804    -3.1969 C.3     
  24 C24            0.3616    -3.9347    -2.1871 C.3     
  25 C25            0.5937    -2.6601    -1.3382 C.3     
  26 H26           -0.4983    -0.3791     0.8948 H       
  27 H27           -1.7288    -0.0959    -1.2772 H       
  28 H28           -0.1736    -0.2164    -2.1345 H       
  29 H29           -2.0280     1.6644     0.0207 H       
  30 H30            0.4455     6.3276     0.0367 H       
  31 H31           -3.1260     7.4190     0.5728 H       
  32 H32           -1.4556     8.0338     0.5683 H       
  33 H33           -2.6720     8.7483    -1.3592 H       
  34 H34            1.2482    -1.5546     1.8292 H       
  35 H35            4.2279    -0.3043    -1.8892 H       
  36 H36            1.8929     0.4766    -1.8651 H       
  37 H37           -1.2611    -2.3583    -0.2469 H       
  38 H38           -2.5025    -3.1337    -2.0022 H       
  39 H39           -1.9914    -1.7308    -2.9829 H       
  40 H40           -1.2734    -4.3401    -3.5767 H       
  41 H41           -0.2684    -2.9239    -4.0175 H       
  42 H42           -0.0076    -4.7507    -1.5657 H       
  43 H43            1.2754    -4.2254    -2.7053 H       
  44 H44            1.2590    -1.9711    -1.8586 H       
  45 H45            1.0012    -2.9211    -0.3616 H       
@<TRIPOS>BOND
   1    1    2 1
   2    1    4 2
   3    1    5 am
   4    2    3 1
   5    2   13 1
   6    2   26 1
   7    3   21 1
   8    3   27 1
   9    3   28 1
  10    5    7 1
  11    5   29 1
  12    6    7 1
  13    6   10 1
  14    7    8 2
  15    8    9 1
  16    9   10 2
  17    9   30 1
  18   10   11 1
  19   11   12 1
  20   11   31 1
  21   11   32 1
  22   12   33 1
  23   13   14 ar
  24   13   18 ar
  25   14   15 ar
  26   14   34 1
  27   15   16 ar
  28   15   20 1
  29   16   17 ar
  30   16   19 1
  31   17   18 ar
  32   17   35 1
  33   18   36 1
  34   21   22 1
  35   21   25 1
  36   21   37 1
  37   22   23 1
  38   22   38 1
  39   22   39 1
  40   23   24 1
  41   23   40 1
  42   23   41 1
  43   24   25 1
  44   24   42 1
  45   24   43 1
  46   25   44 1
  47   25   45 1

#	End of record

