#	Name: ASD05490112
#	Creating user name:	WinNT
#	Creation time:	15. 06. 2019 21:01

#	Modifying user name:	WinNT
#	Modification time:	15. 06. 2019 21:01

#	Program:	/corina/corina34_cracker 3.40 0067  02.08.2006

@<TRIPOS>MOLECULE
ASD05490112
  75   80    0    0    0
SMALL
NO_CHARGES


@<TRIPOS>ATOM
   1 N1            -0.0178     1.4608     0.0101 N.pl3   
   2 O2             4.5582     2.8949    -0.0261 O.3     
   3 N3             2.7941     4.3826    -0.0015 N.ar    
   4 C4             1.4952     4.6638     0.0118 C.ar    
   5 C5             3.2233     3.1292    -0.0123 C.ar    
   6 N6             2.3949     2.0994    -0.0093 N.ar    
   7 C7             1.0795     2.2895     0.0040 C.ar    
   8 C8             0.5781     3.6006     0.0150 C.ar    
   9 N9             1.0558     5.9772     0.0226 N.pl3   
  10 C10           -1.1306     2.2546     0.0190 C.2     
  11 N11           -0.7773     3.5129     0.0270 N.2     
  12 C12            5.4173     4.0368    -0.0280 C.3     
  13 C13            6.8766     3.5771    -0.0442 C.3     
  14 C14            7.7962     4.7955    -0.1721 C.3     
  15 C15            9.2543     4.3334    -0.1082 C.3     
  16 C16            0.0021    -0.0041     0.0020 C.3     
  17 C17            0.0225    -0.5140     1.4200 C.ar    
  18 C18           -1.1674    -0.7635     2.0797 C.ar    
  19 C19           -1.1546    -1.2305     3.3784 C.ar    
  20 C20            0.0599    -1.4511     4.0247 C.ar    
  21 C21            1.2555    -1.1986     3.3552 C.ar    
  22 C22            1.2310    -0.7362     2.0550 C.ar    
  23 C23            0.0800    -1.9528     5.4211 C.ar    
  24 C24            1.2946    -2.1734     6.0675 C.ar    
  25 C25           -1.1155    -2.1995     6.0926 C.ar    
  26 C26           -1.0910    -2.6661     7.3915 C.ar    
  27 C27            0.1173    -2.8887     8.0263 C.ar    
  28 C28            1.3074    -2.6400     7.3662 C.ar    
  29 O29            9.4772     3.6323     1.1169 O.3     
  30 C30            8.6786     2.4572     1.2704 C.3     
  31 C31            7.1973     2.8439     1.2619 C.3     
  32 C32            2.6203    -2.8856     8.0642 C.3     
  33 N33            3.0557    -4.2666     7.8168 N.3     
  34 C34            4.4401    -4.4750     8.2791 C.3     
  35 C35            2.1771    -5.2316     8.5114 C.3     
  36 C36            3.1125    -6.3983     8.9157 C.3     
  37 C37            4.4141    -5.6412     9.2894 C.3     
  38 O38           -2.4073     1.8048     0.0270 O.3     
  39 C39           -3.4422     2.7900     0.0462 C.3     
  40 H40            1.6985     6.7037     0.0206 H       
  41 H41            0.1053     6.1706     0.0323 H       
  42 H42            5.2168     4.6408    -0.9129 H       
  43 H43            5.2335     4.6312     0.8670 H       
  44 H44            7.0386     2.9077    -0.8890 H       
  45 H45            7.6128     5.2918    -1.1250 H       
  46 H46            7.5977     5.4890     0.6451 H       
  47 H47            9.4631     3.6717    -0.9488 H       
  48 H48            9.9129     5.2006    -0.1557 H       
  49 H49           -0.8878    -0.3767    -0.5053 H       
  50 H50            0.8920    -0.3525    -0.5222 H       
  51 H51           -2.1082    -0.5921     1.5778 H       
  52 H52           -2.0843    -1.4243     3.8928 H       
  53 H53            2.1997    -1.3679     3.8515 H       
  54 H54            2.1571    -0.5405     1.5350 H       
  55 H55            2.2243    -1.9799     5.5530 H       
  56 H56           -2.0597    -2.0256     5.5980 H       
  57 H57           -2.0172    -2.8573     7.9131 H       
  58 H58            0.1319    -3.2535     9.0427 H       
  59 H59            8.8798     1.7710     0.4478 H       
  60 H60            8.9224     1.9729     2.2160 H       
  61 H61            6.9868     3.4981     2.1080 H       
  62 H62            6.5857     1.9447     1.3345 H       
  63 H63            3.3705    -2.1939     7.6810 H       
  64 H64            2.4965    -2.7301     9.1360 H       
  65 H65            5.0788    -4.7309     7.4338 H       
  66 H66            4.8088    -3.5716     8.7651 H       
  67 H67            1.7363    -4.7742     9.3971 H       
  68 H68            1.3966    -5.5868     7.8384 H       
  69 H69            2.7145    -6.9381     9.7749 H       
  70 H70            3.2806    -7.0729     8.0763 H       
  71 H71            5.2848    -6.2838     9.1587 H       
  72 H72            4.3613    -5.2649    10.3110 H       
  73 H73           -3.3425     3.4042     0.9411 H       
  74 H74           -3.3595     3.4211    -0.8387 H       
  75 H75           -4.4139     2.2962     0.0508 H       
@<TRIPOS>BOND
   1    1   16 1
   2    1    7 1
   3    1   10 1
   4    2   12 1
   5    2    5 1
   6    3    4 ar
   7    3    5 ar
   8    4    9 1
   9    4    8 ar
  10    5    6 ar
  11    6    7 ar
  12    7    8 ar
  13    8   11 1
  14    9   40 1
  15    9   41 1
  16   10   11 2
  17   10   38 1
  18   12   13 1
  19   12   42 1
  20   12   43 1
  21   13   14 1
  22   13   31 1
  23   13   44 1
  24   14   15 1
  25   14   45 1
  26   14   46 1
  27   15   29 1
  28   15   47 1
  29   15   48 1
  30   16   17 1
  31   16   49 1
  32   16   50 1
  33   17   18 ar
  34   17   22 ar
  35   18   19 ar
  36   18   51 1
  37   19   20 ar
  38   19   52 1
  39   20   21 ar
  40   20   23 1
  41   21   22 ar
  42   21   53 1
  43   22   54 1
  44   23   24 ar
  45   23   25 ar
  46   24   28 ar
  47   24   55 1
  48   25   26 ar
  49   25   56 1
  50   26   27 ar
  51   26   57 1
  52   27   28 ar
  53   27   58 1
  54   28   32 1
  55   29   30 1
  56   30   31 1
  57   30   59 1
  58   30   60 1
  59   31   61 1
  60   31   62 1
  61   32   33 1
  62   32   63 1
  63   32   64 1
  64   33   34 1
  65   33   35 1
  66   34   37 1
  67   34   65 1
  68   34   66 1
  69   35   36 1
  70   35   67 1
  71   35   68 1
  72   36   37 1
  73   36   69 1
  74   36   70 1
  75   37   71 1
  76   37   72 1
  77   38   39 1
  78   39   73 1
  79   39   74 1
  80   39   75 1

#	End of record

