#	Name: ASD01411192
#	Creating user name:	WinNT
#	Creation time:	15. 06. 2019 19:19

#	Modifying user name:	WinNT
#	Modification time:	15. 06. 2019 19:19

#	Program:	/corina/corina34_cracker 3.40 0067  02.08.2006

@<TRIPOS>MOLECULE
ASD01411192
  64   66    0    0    0
SMALL
NO_CHARGES


@<TRIPOS>ATOM
   1 C1             1.0771     3.6135    -0.7970 C.ar    
   2 C2             1.6809     3.5795    -2.0462 C.ar    
   3 C3             2.8786     2.9093    -2.1996 C.ar    
   4 N4             3.4511     2.3046    -1.1764 N.ar    
   5 C5             2.9065     2.3148     0.0293 C.ar    
   6 C6             1.7027     2.9695     0.2565 C.ar    
   7 C7             4.6479    -0.4167     0.9199 C.ar    
   8 C8             4.6520     0.9653     0.7731 C.ar    
   9 O9             3.5297     1.6798     1.0535 O.3     
  10 C10            5.7818    -1.1515     0.6384 C.ar    
  11 C11            6.9362    -0.5136     0.2065 C.ar    
  12 C12            6.9468     0.8814     0.0557 C.ar    
  13 C13            5.7940     1.6162     0.3432 C.ar    
  14 N14            8.0814    -1.2564    -0.0768 N.am    
  15 C15            8.3541    -1.6167    -1.3465 C.2     
  16 C16            9.5308    -2.5114    -1.6398 C.3     
  17 O17            7.6524    -1.2210    -2.2531 O.2     
  18 C18            9.7178    -2.6281    -3.1538 C.3     
  19 C19            9.2758    -3.8994    -1.0489 C.3     
  20 C20            8.0133    -4.4959    -1.6743 C.3     
  21 C21            8.2004    -4.6126    -3.1883 C.3     
  22 C22            8.4553    -3.2246    -3.7792 C.3     
  23 C23            6.9378    -5.2091    -3.8137 C.3     
  24 C24            8.9886    -1.6452     1.0058 C.3     
  25 C25            9.6277    -0.3933     1.6102 C.3     
  26 C26            8.2027    -2.3894     2.0873 C.3     
  27 O27            7.6222    -3.5691     1.5275 O.3     
  28 C28            6.8624    -4.3414     2.4593 C.3     
  29 C29            8.1681     1.5680    -0.4020 C.2     
  30 O30            9.1385     0.9200    -0.7410 O.2     
  31 O31            8.2085     2.9143    -0.4445 O.3     
  32 C32            1.0861     2.9785     1.6315 C.3     
  33 F33           -0.1135     3.6977     1.5999 F       
  34 F34            0.8311     1.6640     2.0369 F       
  35 F35            1.9681     3.5821     2.5342 F       
  36 H36            0.1426     4.1344    -0.6492 H       
  37 H37            1.2189     4.0715    -2.8893 H       
  38 H38            3.3524     2.8795    -3.1697 H       
  39 H39            3.7538    -0.9179     1.2603 H       
  40 H40            5.7708    -2.2252     0.7550 H       
  41 H41            5.7944     2.6902     0.2296 H       
  42 H42           10.4302    -2.0864    -1.1943 H       
  43 H43            9.8994    -1.6392    -3.5748 H       
  44 H44           10.5689    -3.2752    -3.3659 H       
  45 H45           10.1269    -4.5465    -1.2610 H       
  46 H46            9.1426    -3.8163     0.0297 H       
  47 H47            7.8317    -5.4848    -1.2533 H       
  48 H48            7.1622    -3.8488    -1.4622 H       
  49 H49            9.0515    -5.2597    -3.4004 H       
  50 H50            7.6042    -2.5775    -3.5671 H       
  51 H51            8.5886    -3.3077    -4.8578 H       
  52 H52            6.0867    -4.5620    -3.6016 H       
  53 H53            7.0711    -5.2923    -4.8923 H       
  54 H54            6.7562    -6.1980    -3.3927 H       
  55 H55            9.7683    -2.2963     0.6104 H       
  56 H56            8.8493     0.2496     2.0212 H       
  57 H57           10.3158    -0.6837     2.4041 H       
  58 H58           10.1731     0.1461     0.8358 H       
  59 H59            8.8748    -2.6655     2.8998 H       
  60 H60            7.4135    -1.7436     2.4722 H       
  61 H61            7.5067    -4.6580     3.2796 H       
  62 H62            6.0453    -3.7361     2.8519 H       
  63 H63            6.4555    -5.2192     1.9573 H       
  64 H64            9.0311     3.3193    -0.7516 H       
@<TRIPOS>BOND
   1    1    2 ar
   2    1    6 ar
   3    1   36 1
   4    2    3 ar
   5    2   37 1
   6    3    4 ar
   7    3   38 1
   8    4    5 ar
   9    5    6 ar
  10    5    9 1
  11    6   32 1
  12    7    8 ar
  13    7   10 ar
  14    7   39 1
  15    8    9 1
  16    8   13 ar
  17   10   11 ar
  18   10   40 1
  19   11   12 ar
  20   11   14 1
  21   12   13 ar
  22   12   29 1
  23   13   41 1
  24   14   15 am
  25   14   24 1
  26   15   17 2
  27   15   16 1
  28   16   18 1
  29   16   19 1
  30   16   42 1
  31   18   22 1
  32   18   43 1
  33   18   44 1
  34   19   20 1
  35   19   45 1
  36   19   46 1
  37   20   21 1
  38   20   47 1
  39   20   48 1
  40   21   22 1
  41   21   23 1
  42   21   49 1
  43   22   50 1
  44   22   51 1
  45   23   52 1
  46   23   53 1
  47   23   54 1
  48   24   25 1
  49   24   26 1
  50   24   55 1
  51   25   56 1
  52   25   57 1
  53   25   58 1
  54   26   27 1
  55   26   59 1
  56   26   60 1
  57   27   28 1
  58   28   61 1
  59   28   62 1
  60   28   63 1
  61   29   30 2
  62   29   31 1
  63   31   64 1
  64   32   33 1
  65   32   34 1
  66   32   35 1

#	End of record

