#	Name: ASD03330843
#	Creating user name:	WinNT
#	Creation time:	15. 06. 2019 20:38

#	Modifying user name:	WinNT
#	Modification time:	15. 06. 2019 20:38

#	Program:	/corina/corina34_cracker 3.40 0067  02.08.2006

@<TRIPOS>MOLECULE
ASD03330843
  60   62    0    0    0
SMALL
NO_CHARGES


@<TRIPOS>ATOM
   1 C1            -0.0624     1.9730     1.7614 C.2     
   2 N2            -0.1466     0.6784     2.1672 N.pl3   
   3 C3             1.2173     2.1790     1.3429 C.2     
   4 N4             1.8883     1.0146     1.4803 N.2     
   5 C5             1.0761     0.1069     1.9689 C.2     
   6 C6             1.4280    -1.3007     2.2573 C.ar    
   7 C7             2.1163    -2.0595     1.3089 C.ar    
   8 C8             1.7707     3.4453     0.8313 C.2     
   9 O9             1.0627     4.4311     0.7540 O.2     
  10 C10            3.6116     4.7699    -0.0596 C.3     
  11 N11            3.0615     3.5110     0.4491 N.am    
  12 C12            2.4427    -3.3733     1.5839 C.ar    
  13 C13            2.0889    -3.9378     2.7954 C.ar    
  14 C14            1.4051    -3.1905     3.7413 C.ar    
  15 C15            1.0785    -1.8735     3.4804 C.ar    
  16 C16           -1.3407     0.0392     2.7265 C.3     
  17 C17           -2.5500     0.3795     1.8499 C.3     
  18 C18           -3.1726     1.6914     2.3168 C.3     
  19 N19           -2.1496     2.6107     2.8191 N.3     
  20 C20           -1.1909     2.9714     1.7641 C.3     
  21 C21           -2.7621     3.8099     3.4063 C.3     
  22 C22            3.3151     4.8884    -1.5558 C.3     
  23 C23            1.8075     4.7693    -1.7880 C.3     
  24 C24            3.8042     6.2451    -2.0668 C.3     
  25 C25            4.0371     3.7694    -2.3091 C.3     
  26 C26            5.1023     4.7918     0.1604 C.2     
  27 O27            5.6890     3.7682     0.4414 O.2     
  28 N28            5.7836     5.9489     0.0448 N.am    
  29 C29            7.2418     5.9576     0.1854 C.3     
  30 Cl30           2.5608    -1.3535    -0.2134 Cl      
  31 F31            1.0623    -3.7489     4.9227 F       
  32 H32            3.1540     5.6062     0.4689 H       
  33 H33            3.6261     2.7247     0.5107 H       
  34 H34            2.9752    -3.9609     0.8507 H       
  35 H35            2.3461    -4.9655     3.0054 H       
  36 H36            0.5456    -1.2917     4.2180 H       
  37 H37           -1.1992    -1.0414     2.7484 H       
  38 H38           -1.5099     0.4059     3.7390 H       
  39 H39           -2.2294     0.4793     0.8129 H       
  40 H40           -3.2882    -0.4189     1.9249 H       
  41 H41           -3.6931     2.1579     1.4804 H       
  42 H42           -3.8888     1.4843     3.1119 H       
  43 H43           -0.7949     3.9685     1.9569 H       
  44 H44           -1.6919     2.9578     0.7962 H       
  45 H45           -3.4081     3.5194     4.2348 H       
  46 H46           -1.9800     4.4756     3.7715 H       
  47 H47           -3.3526     4.3245     2.6483 H       
  48 H48            1.2932     5.5666    -1.2514 H       
  49 H49            1.5962     4.8538    -2.8540 H       
  50 H50            1.4591     3.8028    -1.4240 H       
  51 H51            4.8458     6.3878    -1.7789 H       
  52 H52            3.7199     6.2762    -3.1531 H       
  53 H53            3.1953     7.0380    -1.6323 H       
  54 H54            3.6886     2.8028    -1.9451 H       
  55 H55            3.8258     3.8538    -3.3751 H       
  56 H56            5.1111     3.8542    -2.1437 H       
  57 H57            5.3084     6.7760    -0.1314 H       
  58 H58            7.6127     6.9751     0.0616 H       
  59 H59            7.5137     5.5897     1.1747 H       
  60 H60            7.6840     5.3146    -0.5756 H       
@<TRIPOS>BOND
   1    1    2 1
   2    1    3 2
   3    1   20 1
   4    2   16 1
   5    2    5 1
   6    3    4 1
   7    3    8 1
   8    4    5 2
   9    5    6 1
  10    6    7 ar
  11    6   15 ar
  12    7   12 ar
  13    7   30 1
  14    8    9 2
  15    8   11 am
  16   10   11 1
  17   10   22 1
  18   10   26 1
  19   10   32 1
  20   11   33 1
  21   12   13 ar
  22   12   34 1
  23   13   14 ar
  24   13   35 1
  25   14   15 ar
  26   14   31 1
  27   15   36 1
  28   16   17 1
  29   16   37 1
  30   16   38 1
  31   17   18 1
  32   17   39 1
  33   17   40 1
  34   18   19 1
  35   18   41 1
  36   18   42 1
  37   19   20 1
  38   19   21 1
  39   20   43 1
  40   20   44 1
  41   21   45 1
  42   21   46 1
  43   21   47 1
  44   22   23 1
  45   22   24 1
  46   22   25 1
  47   23   48 1
  48   23   49 1
  49   23   50 1
  50   24   51 1
  51   24   52 1
  52   24   53 1
  53   25   54 1
  54   25   55 1
  55   25   56 1
  56   26   27 2
  57   26   28 am
  58   28   29 1
  59   28   57 1
  60   29   58 1
  61   29   59 1
  62   29   60 1

#	End of record

