#	Name: ASD01901146
#	Creating user name:	WinNT
#	Creation time:	15. 06. 2019 19:53

#	Modifying user name:	WinNT
#	Modification time:	15. 06. 2019 19:53

#	Program:	/corina/corina34_cracker 3.40 0067  02.08.2006

@<TRIPOS>MOLECULE
ASD01901146
  47   50    0    0    0
SMALL
NO_CHARGES


@<TRIPOS>ATOM
   1 C1            -0.0166     1.3750     0.0096 C.ar    
   2 C2             0.0021    -0.0041     0.0020 C.ar    
   3 C3             1.2078    -0.6830    -0.0131 C.ar    
   4 C4             2.4027     0.0149    -0.0208 C.ar    
   5 C5             2.3997     1.3941    -0.0129 C.ar    
   6 C6             1.1860     2.0866     0.0019 C.ar    
   7 C7             1.1748     3.5185     0.0093 C.1     
   8 C8             1.1655     4.6925     0.0153 C.1     
   9 C9             1.1543     6.1244     0.0226 C.ar    
  10 C10            2.3583     6.8345     0.0149 C.ar    
  11 C11            2.3436     8.2144     0.0221 C.ar    
  12 C12            1.1325     8.8988     0.0369 C.ar    
  13 C13           -0.0678     8.1953     0.0446 C.ar    
  14 C14           -0.0608     6.8154     0.0317 C.ar    
  15 N15            1.1215    10.3012     0.0446 N.am    
  16 C16            1.1056    10.9629    -1.1240 C.2     
  17 N17            1.3147    12.2914    -1.1799 N.am    
  18 C18            1.6704    13.0375     0.0166 C.3     
  19 C19            1.0048    12.4559     1.2542 C.3     
  20 C20            1.1215    10.9512     1.2222 C.2     
  21 O21            0.8984    10.3494    -2.1525 O.2     
  22 F22            3.5068     8.9015     0.0151 F       
  23 O23            1.2199    10.3290     2.2581 O.2     
  24 F24           -1.2416     8.8640     0.0590 F       
  25 C25            1.1830    12.9929    -2.4592 C.3     
  26 C26            3.2002    13.0926     0.1932 C.3     
  27 C27            1.3140    14.5322    -0.1401 C.3     
  28 C28            2.5562    15.0882    -0.8722 C.3     
  29 O29            3.6358    14.1722    -0.6512 O.3     
  30 H30           -0.9584     1.9035     0.0169 H       
  31 H31           -0.9266    -0.5554     0.0083 H       
  32 H32            1.2163    -1.7630    -0.0187 H       
  33 H33            3.3399    -0.5217    -0.0326 H       
  34 H34            3.3330     1.9375    -0.0182 H       
  35 H35            3.2989     6.3039     0.0038 H       
  36 H36           -0.9929     6.2700     0.0328 H       
  37 H37            1.4960    12.8422     2.1474 H       
  38 H38           -0.0485    12.7359     1.2669 H       
  39 H39            0.9140    12.2799    -3.2386 H       
  40 H40            0.4060    13.7532    -2.3785 H       
  41 H41            2.1309    13.4676    -2.7126 H       
  42 H42            3.4540    13.2992     1.2329 H       
  43 H43            3.6524    12.1544    -0.1284 H       
  44 H44            0.4176    14.6559    -0.7477 H       
  45 H45            1.1928    15.0066     0.8337 H       
  46 H46            2.3513    15.1675    -1.9399 H       
  47 H47            2.8144    16.0680    -0.4704 H       
@<TRIPOS>BOND
   1    1    2 ar
   2    1    6 ar
   3    1   30 1
   4    2    3 ar
   5    2   31 1
   6    3    4 ar
   7    3   32 1
   8    4    5 ar
   9    4   33 1
  10    5    6 ar
  11    5   34 1
  12    6    7 1
  13    7    8 3
  14    8    9 1
  15    9   10 ar
  16    9   14 ar
  17   10   11 ar
  18   10   35 1
  19   11   12 ar
  20   11   22 1
  21   12   13 ar
  22   12   15 1
  23   13   14 ar
  24   13   24 1
  25   14   36 1
  26   15   16 am
  27   15   20 am
  28   16   17 am
  29   16   21 2
  30   17   25 1
  31   17   18 1
  32   18   19 1
  33   18   27 1
  34   18   26 1
  35   19   20 1
  36   19   37 1
  37   19   38 1
  38   20   23 2
  39   25   39 1
  40   25   40 1
  41   25   41 1
  42   26   29 1
  43   26   42 1
  44   26   43 1
  45   27   28 1
  46   27   44 1
  47   27   45 1
  48   28   29 1
  49   28   46 1
  50   28   47 1

#	End of record

