#	Name: ASD07930296
#	Creating user name:	WinNT
#	Creation time:	15. 06. 2019 21:12

#	Modifying user name:	WinNT
#	Modification time:	15. 06. 2019 21:12

#	Program:	/corina/corina34_cracker 3.40 0067  02.08.2006

@<TRIPOS>MOLECULE
ASD07930296
  60   64    0    0    0
SMALL
NO_CHARGES


@<TRIPOS>ATOM
   1 C1             0.6194     0.5279    -0.3471 C.2     
   2 C2             0.9263    -0.8052    -0.3368 C.2     
   3 C3             2.3302    -1.2060    -0.2160 C.2     
   4 N4             3.2789    -0.2586    -0.1169 N.am    
   5 C5             2.9447     1.0767    -0.1316 C.2     
   6 C6             1.6475     1.4730    -0.2431 C.2     
   7 C7             4.6956    -0.6259     0.0117 C.3     
   8 C8             5.5189     0.3448    -0.8480 C.3     
   9 N9             5.2875     1.7117    -0.3597 N.am    
  10 C10            4.0275     2.0794    -0.0251 C.2     
  11 C11            6.3987     2.6585    -0.2373 C.3     
  12 O12            3.7913     3.2099     0.3550 O.2     
  13 O13            2.6350    -2.3865    -0.2052 O.2     
  14 N14           -0.0818    -1.7679    -0.4391 N.pl3   
  15 C15           -0.2591    -2.6469    -1.4604 C.2     
  16 N16           -1.3038    -3.3836    -1.1977 N.2     
  17 C17           -1.8258    -3.0111    -0.0194 C.2     
  18 C18           -1.0757    -2.0081     0.4748 C.2     
  19 C19           -3.0388    -3.6150     0.6401 C.3     
  20 C20            6.6421     3.3364    -1.5871 C.3     
  21 O21            5.4971     4.1137    -1.9432 O.3     
  22 C22            5.5022     4.6919    -3.1724 C.ar    
  23 C23            6.5400     4.4398    -4.0549 C.ar    
  24 C24            6.5443     5.0292    -5.3053 C.ar    
  25 C25            5.5145     5.8723    -5.6831 C.ar    
  26 C26            4.4742     6.1321    -4.8136 C.ar    
  27 C27            4.4571     5.5391    -3.5537 C.ar    
  28 C28            3.3417     5.8149    -2.6156 C.ar    
  29 C29            3.0279     7.1275    -2.2688 C.ar    
  30 C30            1.9890     7.3783    -1.3953 C.ar    
  31 C31            1.2601     6.3297    -0.8643 C.ar    
  32 C32            1.5672     5.0245    -1.2051 C.ar    
  33 C33            2.5998     4.7623    -2.0822 C.ar    
  34 C34            1.6484     8.7973    -1.0193 C.3     
  35 H35           -0.4076     0.8491    -0.4393 H       
  36 H36            1.4088     2.5262    -0.2515 H       
  37 H37            5.0034    -0.5464     1.0543 H       
  38 H38            4.8448    -1.6468    -0.3401 H       
  39 H39            6.5778     0.1003    -0.7642 H       
  40 H40            5.2040     0.2695    -1.8888 H       
  41 H41            6.1521     3.4135     0.5093 H       
  42 H42            7.2985     2.1250     0.0689 H       
  43 H43            0.3604    -2.7226    -2.3418 H       
  44 H44           -1.2311    -1.4878     1.4084 H       
  45 H45           -2.7305    -4.4411     1.2809 H       
  46 H46           -3.5409    -2.8568     1.2411 H       
  47 H47           -3.7223    -3.9838    -0.1246 H       
  48 H48            7.5143     3.9862    -1.5153 H       
  49 H49            6.8168     2.5767    -2.3490 H       
  50 H50            7.3466     3.7825    -3.7656 H       
  51 H51            7.3554     4.8308    -5.9902 H       
  52 H52            5.5248     6.3291    -6.6617 H       
  53 H53            3.6723     6.7911    -5.1119 H       
  54 H54            3.5969     7.9471    -2.6823 H       
  55 H55            0.4485     6.5304    -0.1807 H       
  56 H56            0.9950     4.2094    -0.7872 H       
  57 H57            2.8384     3.7431    -2.3478 H       
  58 H58            0.9135     9.1927    -1.7205 H       
  59 H59            1.2355     8.8168    -0.0107 H       
  60 H60            2.5500     9.4089    -1.0547 H       
@<TRIPOS>BOND
   1    1    2 2
   2    1    6 1
   3    1   35 1
   4    2    3 1
   5    2   14 1
   6    3    4 am
   7    3   13 2
   8    4    5 1
   9    4    7 1
  10    5    6 2
  11    5   10 1
  12    6   36 1
  13    7    8 1
  14    7   37 1
  15    7   38 1
  16    8    9 1
  17    8   39 1
  18    8   40 1
  19    9   10 am
  20    9   11 1
  21   10   12 2
  22   11   20 1
  23   11   41 1
  24   11   42 1
  25   14   15 1
  26   14   18 1
  27   15   16 2
  28   15   43 1
  29   16   17 1
  30   17   18 2
  31   17   19 1
  32   18   44 1
  33   19   45 1
  34   19   46 1
  35   19   47 1
  36   20   21 1
  37   20   48 1
  38   20   49 1
  39   21   22 1
  40   22   23 ar
  41   22   27 ar
  42   23   24 ar
  43   23   50 1
  44   24   25 ar
  45   24   51 1
  46   25   26 ar
  47   25   52 1
  48   26   27 ar
  49   26   53 1
  50   27   28 1
  51   28   29 ar
  52   28   33 ar
  53   29   30 ar
  54   29   54 1
  55   30   31 ar
  56   30   34 1
  57   31   32 ar
  58   31   55 1
  59   32   33 ar
  60   32   56 1
  61   33   57 1
  62   34   58 1
  63   34   59 1
  64   34   60 1

#	End of record

