#	Name: ASD03330598
#	Creating user name:	WinNT
#	Creation time:	15. 06. 2019 20:37

#	Modifying user name:	WinNT
#	Modification time:	15. 06. 2019 20:37

#	Program:	/corina/corina34_cracker 3.40 0067  02.08.2006

@<TRIPOS>MOLECULE
ASD03330598
  66   68    0    0    0
SMALL
NO_CHARGES


@<TRIPOS>ATOM
   1 C1            -0.0589     1.9926     1.7822 C.2     
   2 N2            -0.1463     0.7071     2.1949 N.pl3   
   3 C3             1.2190     2.1909     1.3509 C.2     
   4 N4             1.8854     1.0255     1.4891 N.2     
   5 C5             1.0714     0.1257     1.9904 C.2     
   6 C6             1.4160    -1.2814     2.2842 C.ar    
   7 C7             1.7734     3.4521     0.8269 C.2     
   8 O8             1.0690     4.4405     0.7501 O.2     
   9 C9             3.6122     4.7634    -0.0877 C.3     
  10 N10            3.0611     3.5099     0.4331 N.am    
  11 C11            3.3030     4.8746    -1.5820 C.3     
  12 C12            1.7928     4.7619    -1.8001 C.3     
  13 C13            3.7944     6.2257    -2.1054 C.3     
  14 C14            4.0126     3.7474    -2.3349 C.3     
  15 C15            5.1048     4.7802     0.1191 C.2     
  16 N16            5.7897     5.9341    -0.0069 N.am    
  17 O17            5.6898     3.7553     0.3988 O.2     
  18 C18            7.2491     5.9375     0.1209 C.3     
  19 C19           -1.3388     0.0773     2.7685 C.3     
  20 C20           -2.5542     0.4172     1.9003 C.3     
  21 C21           -3.1668     1.7348     2.3649 C.3     
  22 N22           -2.1338     2.6509     2.8530 N.3     
  23 C23           -1.1815     2.9978     1.7878 C.3     
  24 C24           -2.7339     3.8582     3.4364 C.3     
  25 C25            2.4235    -3.3588     1.6105 C.ar    
  26 C26            2.0627    -3.9230     2.8366 C.ar    
  27 C27            1.3720    -3.1586     3.7816 C.ar    
  28 C28            1.0512    -1.8491     3.5071 C.ar    
  29 C29            2.1024    -2.0460     1.3354 C.ar    
  30 C30            2.4060    -5.3281     3.1320 C.2     
  31 O31            3.0021    -5.9937     2.3090 O.2     
  32 O32            2.0580    -5.8722     4.3145 O.3     
  33 C33            2.4281    -7.2587     4.5364 C.3     
  34 F34            2.4502    -1.4992     0.1500 F       
  35 H35            3.1628     5.6048     0.4399 H       
  36 H36            3.6229     2.7216     0.4944 H       
  37 H37            1.2873     5.5649    -1.2638 H       
  38 H38            1.5726     4.8410    -2.8647 H       
  39 H39            1.4427     3.7993    -1.4273 H       
  40 H40            4.8383     6.3662    -1.8247 H       
  41 H41            3.7038     6.2495    -3.1913 H       
  42 H42            3.1913     7.0240    -1.6729 H       
  43 H43            3.6625     2.7848    -1.9620 H       
  44 H44            3.7923     3.8266    -3.3994 H       
  45 H45            5.0885     3.8277    -2.1795 H       
  46 H46            5.3163     6.7624    -0.1822 H       
  47 H47            7.6230     6.9529    -0.0101 H       
  48 H48            7.5281     5.5722     1.1092 H       
  49 H49            7.6820     5.2897    -0.6414 H       
  50 H50           -1.2021    -1.0037     2.7965 H       
  51 H51           -1.4976     0.4516     3.7799 H       
  52 H52           -2.2422     0.5093     0.8600 H       
  53 H53           -3.2952    -0.3775     1.9868 H       
  54 H54           -3.6919     2.1993     1.5303 H       
  55 H55           -3.8771     1.5360     3.1674 H       
  56 H56           -0.7777     3.9938     1.9701 H       
  57 H57           -1.6906     2.9808     0.8241 H       
  58 H58           -3.3753     3.5778     4.2718 H       
  59 H59           -1.9447     4.5213     3.7908 H       
  60 H60           -3.3268     4.3714     2.6793 H       
  61 H61            2.9574    -3.9488     0.8804 H       
  62 H62            1.0933    -3.5952     4.7293 H       
  63 H63            0.5173    -1.2597     4.2378 H       
  64 H64            2.0894    -7.5714     5.5241 H       
  65 H65            1.9609    -7.8854     3.7768 H       
  66 H66            3.5116    -7.3598     4.4750 H       
@<TRIPOS>BOND
   1    1    2 1
   2    1    3 2
   3    1   23 1
   4    2   19 1
   5    2    5 1
   6    3    4 1
   7    3    7 1
   8    4    5 2
   9    5    6 1
  10    6   29 ar
  11    6   28 ar
  12    7    8 2
  13    7   10 am
  14    9   10 1
  15    9   11 1
  16    9   15 1
  17    9   35 1
  18   10   36 1
  19   11   12 1
  20   11   13 1
  21   11   14 1
  22   12   37 1
  23   12   38 1
  24   12   39 1
  25   13   40 1
  26   13   41 1
  27   13   42 1
  28   14   43 1
  29   14   44 1
  30   14   45 1
  31   15   16 am
  32   15   17 2
  33   16   18 1
  34   16   46 1
  35   18   47 1
  36   18   48 1
  37   18   49 1
  38   19   20 1
  39   19   50 1
  40   19   51 1
  41   20   21 1
  42   20   52 1
  43   20   53 1
  44   21   22 1
  45   21   54 1
  46   21   55 1
  47   22   23 1
  48   22   24 1
  49   23   56 1
  50   23   57 1
  51   24   58 1
  52   24   59 1
  53   24   60 1
  54   25   26 ar
  55   25   29 ar
  56   25   61 1
  57   26   27 ar
  58   26   30 1
  59   27   28 ar
  60   27   62 1
  61   28   63 1
  62   29   34 1
  63   30   31 2
  64   30   32 1
  65   32   33 1
  66   33   64 1
  67   33   65 1
  68   33   66 1

#	End of record

