#	Name: ASD01913954
#	Creating user name:	WinNT
#	Creation time:	15. 06. 2019 20:02

#	Modifying user name:	WinNT
#	Modification time:	15. 06. 2019 20:02

#	Program:	/corina/corina34_cracker 3.40 0067  02.08.2006

@<TRIPOS>MOLECULE
ASD01913954
  40   43    0    0    0
SMALL
NO_CHARGES


@<TRIPOS>ATOM
   1 C1             0.1139     1.6751     0.0971 C.ar    
   2 C2             0.1721     0.2904     0.0953 C.ar    
   3 C3            -0.9952    -0.4504     0.0740 C.ar    
   4 C4            -2.2174     0.2001     0.0547 C.ar    
   5 C5            -2.2845     1.6068     0.0745 C.ar    
   6 C6            -1.1051     2.3315     0.0924 C.ar    
   7 C7            -3.5054    -0.5152    -0.0127 C.2     
   8 C8            -4.6533     0.1967    -0.3037 C.2     
   9 C9            -4.6175     1.6760    -0.5580 C.3     
  10 O10           -3.4828     2.2389     0.1075 O.3     
  11 N11           -3.8687    -1.7976     0.1536 N.pl3   
  12 N12           -5.1451    -1.9137    -0.0103 N.2     
  13 C13           -5.6871    -0.7372    -0.2911 C.2     
  14 C14           -7.1172    -0.4672    -0.5426 C.2     
  15 N15           -8.0114    -1.4746    -0.4973 N.am    
  16 C16           -9.3719    -1.2049    -0.6288 C.ar    
  17 N17           -9.7881     0.0497    -0.6974 N.ar    
  18 C18          -11.0670     0.3487    -0.8225 C.ar    
  19 C19          -12.0234    -0.6450    -0.8867 C.ar    
  20 C20          -11.6283    -1.9743    -0.8182 C.ar    
  21 C21          -10.2797    -2.2564    -0.6924 C.ar    
  22 C22          -11.4894     1.7934    -0.8958 C.3     
  23 O23           -7.4878     0.6638    -0.7904 O.2     
  24 C24           -2.9559    -2.8982     0.4722 C.3     
  25 F25            1.2589     2.3921     0.1094 F       
  26 H26            1.1291    -0.2100     0.1101 H       
  27 H27           -0.9539    -1.5296     0.0721 H       
  28 H28           -1.1359     3.4111     0.0944 H       
  29 H29           -4.5395     1.8596    -1.6296 H       
  30 H30           -5.5293     2.1338    -0.1743 H       
  31 H31           -7.7077    -2.3874    -0.3732 H       
  32 H32          -13.0682    -0.3910    -0.9888 H       
  33 H33          -12.3568    -2.7701    -0.8662 H       
  34 H34           -9.9373    -3.2792    -0.6368 H       
  35 H35          -11.4969     2.1175    -1.9364 H       
  36 H36          -12.4889     1.9016    -0.4744 H       
  37 H37          -10.7881     2.4062    -0.3294 H       
  38 H38           -2.7837    -2.9277     1.5481 H       
  39 H39           -3.3968    -3.8412     0.1488 H       
  40 H40           -2.0078    -2.7447    -0.0434 H       
@<TRIPOS>BOND
   1    1    2 ar
   2    1   25 1
   3    1    6 ar
   4    2    3 ar
   5    2   26 1
   6    3    4 ar
   7    3   27 1
   8    4    5 ar
   9    4    7 1
  10    5    6 ar
  11    5   10 1
  12    6   28 1
  13    7    8 2
  14    7   11 1
  15    8    9 1
  16    8   13 1
  17    9   10 1
  18    9   29 1
  19    9   30 1
  20   11   12 1
  21   11   24 1
  22   12   13 2
  23   13   14 1
  24   14   15 am
  25   14   23 2
  26   15   16 1
  27   15   31 1
  28   16   17 ar
  29   16   21 ar
  30   17   18 ar
  31   18   19 ar
  32   18   22 1
  33   19   20 ar
  34   19   32 1
  35   20   21 ar
  36   20   33 1
  37   21   34 1
  38   22   35 1
  39   22   36 1
  40   22   37 1
  41   24   38 1
  42   24   39 1
  43   24   40 1

#	End of record

