#	Name: ASD01152561
#	Creating user name:	WinNT
#	Creation time:	15. 06. 2019 19:06

#	Modifying user name:	WinNT
#	Modification time:	15. 06. 2019 19:06

#	Program:	/corina/corina34_cracker 3.40 0067  02.08.2006

@<TRIPOS>MOLECULE
ASD01152561
  59   62    0    0    0
SMALL
NO_CHARGES


@<TRIPOS>ATOM
   1 C1            -0.8056     1.5534    -0.7435 C.2     
   2 N2            -0.9436     0.2554    -0.7969 N.2     
   3 N3            -2.1230    -0.3714    -0.3950 N.am    
   4 C4            -3.2507     0.3101    -0.1335 C.2     
   5 C5            -3.3177     1.7980    -0.3857 C.3     
   6 C6            -1.9177     2.3587    -0.2164 C.2     
   7 C7            -3.8177     2.0605    -1.8076 C.3     
   8 O8            -1.7264     3.4285     0.3241 O.2     
   9 C9            -2.1320    -1.7648    -0.2593 C.ar    
  10 O10           -4.2193    -0.2717     0.3066 O.2     
  11 C11           -3.9988     3.5427    -2.0108 C.ar    
  12 C12           -1.1112    -2.4016     0.4327 C.ar    
  13 C13           -3.1657    -2.5103    -0.8124 C.ar    
  14 C14           -3.1761    -3.8853    -0.6790 C.ar    
  15 C15           -2.1580    -4.5241     0.0061 C.ar    
  16 C16           -1.1232    -3.7821     0.5659 C.ar    
  17 C17           -2.9508     4.3068    -2.4856 C.ar    
  18 C18           -5.2159     4.1349    -1.7270 C.ar    
  19 C19           -5.3870     5.4944    -1.9127 C.ar    
  20 C20           -3.1183     5.6727    -2.6732 C.ar    
  21 C21           -4.3412     6.2659    -2.3830 C.ar    
  22 Cl22          -4.5568     7.9725    -2.6172 Cl      
  23 F23           -2.1714    -5.8688     0.1357 F       
  24 N24           -2.0597     6.4487    -3.1530 N.3     
  25 C25           -2.3641     6.9885    -4.4861 C.3     
  26 C26           -1.2067     7.8783    -4.9470 C.3     
  27 O27            0.0056     7.1196    -4.9341 O.3     
  28 C28            0.3330     6.5794    -3.6510 C.3     
  29 C29           -0.8089     5.6765    -3.1769 C.3     
  30 O30            0.3435     2.1465    -1.1610 O.3     
  31 C31            1.3748     1.2885    -1.6531 C.3     
  32 N32           -0.0952    -4.4281     1.2638 N.am    
  33 C33            0.6709    -3.7348     2.1292 C.2     
  34 O34            0.4151    -2.5739     2.3702 O.2     
  35 C35            1.8454    -4.4020     2.7975 C.3     
  36 H36           -3.9896     2.2646     0.3347 H       
  37 H37           -3.0893     1.6818    -2.5246 H       
  38 H38           -4.7714     1.5541    -1.9567 H       
  39 H39           -0.3089    -1.8232     0.8665 H       
  40 H40           -3.9622    -2.0143    -1.3471 H       
  41 H41           -3.9808    -4.4626    -1.1098 H       
  42 H42           -2.0020     3.8426    -2.7105 H       
  43 H43           -6.0348     3.5341    -1.3597 H       
  44 H44           -6.3389     5.9536    -1.6905 H       
  45 H45           -2.4945     6.1669    -5.1905 H       
  46 H46           -3.2800     7.5777    -4.4397 H       
  47 H47           -1.4021     8.2349    -5.9584 H       
  48 H48           -1.1108     8.7292    -4.2726 H       
  49 H49            1.2511     5.9966    -3.7249 H       
  50 H50            0.4737     7.3925    -2.9388 H       
  51 H51           -0.5895     5.3079    -2.1749 H       
  52 H52           -0.9143     4.8339    -3.8603 H       
  53 H53            1.6727     0.5920    -0.8693 H       
  54 H54            1.0039     0.7307    -2.5130 H       
  55 H55            2.2344     1.8882    -1.9522 H       
  56 H56            0.0654    -5.3745     1.1245 H       
  57 H57            1.9164    -5.4359     2.4598 H       
  58 H58            2.7611    -3.8711     2.5374 H       
  59 H59            1.7081    -4.3815     3.8786 H       
@<TRIPOS>BOND
   1    1    2 2
   2    1   30 1
   3    1    6 1
   4    2    3 1
   5    3    4 am
   6    3    9 1
   7    4    5 1
   8    4   10 2
   9    5    6 1
  10    5    7 1
  11    5   36 1
  12    6    8 2
  13    7   11 1
  14    7   37 1
  15    7   38 1
  16    9   12 ar
  17    9   13 ar
  18   11   17 ar
  19   11   18 ar
  20   12   16 ar
  21   12   39 1
  22   13   14 ar
  23   13   40 1
  24   14   15 ar
  25   14   41 1
  26   15   16 ar
  27   15   23 1
  28   16   32 1
  29   17   20 ar
  30   17   42 1
  31   18   19 ar
  32   18   43 1
  33   19   21 ar
  34   19   44 1
  35   20   24 1
  36   20   21 ar
  37   21   22 1
  38   24   25 1
  39   24   29 1
  40   25   26 1
  41   25   45 1
  42   25   46 1
  43   26   27 1
  44   26   47 1
  45   26   48 1
  46   27   28 1
  47   28   29 1
  48   28   49 1
  49   28   50 1
  50   29   51 1
  51   29   52 1
  52   30   31 1
  53   31   53 1
  54   31   54 1
  55   31   55 1
  56   32   33 am
  57   32   56 1
  58   33   34 2
  59   33   35 1
  60   35   57 1
  61   35   58 1
  62   35   59 1

#	End of record

