#	Name: ASD01885679
#	Creating user name:	WinNT
#	Creation time:	15. 06. 2019 19:50

#	Modifying user name:	WinNT
#	Modification time:	15. 06. 2019 19:50

#	Program:	/corina/corina34_cracker 3.40 0067  02.08.2006

@<TRIPOS>MOLECULE
ASD01885679
  50   54    0    0    0
SMALL
NO_CHARGES


@<TRIPOS>ATOM
   1 C1            -0.0170     1.4037     0.0098 C.ar    
   2 C2            -1.2666     2.0741     0.0193 C.ar    
   3 C3            -1.2876     3.4919     0.0272 C.ar    
   4 C4            -0.0705     4.1595     0.0250 C.ar    
   5 C5             1.1196     3.4233     0.0154 C.ar    
   6 N6             1.1177     2.1038     0.0027 N.ar    
   7 C7             0.0021    -0.0041     0.0020 C.ar    
   8 C8            -1.1700    -0.6951     0.0090 C.ar    
   9 C9            -2.3952    -0.0320     0.0237 C.ar    
  10 C10           -2.4531     1.3297     0.0204 C.ar    
  11 C11           -2.5672     4.2367     0.0368 C.ar    
  12 C12           -2.7778     5.2542     0.9679 C.ar    
  13 C13           -3.9714     5.9450     0.9728 C.ar    
  14 C14           -3.5642     3.9272    -0.8888 C.ar    
  15 C15            2.4154     4.1443     0.0065 C.2     
  16 N16            3.5716     3.4520    -0.0142 N.am    
  17 O17            2.4348     5.3591     0.0180 O.2     
  18 C18           -1.1423    -2.2019     0.0132 C.3     
  19 N19           -1.1523    -2.6943    -1.3665 N.pl3   
  20 N20           -2.1022    -2.3719    -2.3418 N.2     
  21 C21           -1.7990    -2.9881    -3.4499 C.2     
  22 C22           -0.6227    -3.7420    -3.2230 C.2     
  23 C23           -0.2489    -3.5251    -1.9076 C.2     
  24 C24           -4.9609     5.6299     0.0550 C.ar    
  25 C25           -4.7544     4.6238    -0.8757 C.ar    
  26 F26           -6.1287     6.3091     0.0641 F       
  27 C27            0.0721    -4.5887    -4.1986 C.2     
  28 O28            1.0770    -5.1867    -3.8758 O.2     
  29 C29           -0.4624    -4.7156    -5.6019 C.3     
  30 C30            0.5306    -5.0867    -6.7051 C.3     
  31 C31           -0.4949    -6.1141    -6.2216 C.3     
  32 H32           -0.0423     5.2392     0.0305 H       
  33 H33            0.9434    -0.5334    -0.0098 H       
  34 H34           -3.3110    -0.6044     0.0376 H       
  35 H35           -3.4090     1.8322     0.0280 H       
  36 H36           -2.0075     5.5002     1.6838 H       
  37 H37           -4.1355     6.7325     1.6934 H       
  38 H38           -3.4040     3.1436    -1.6146 H       
  39 H39            3.5561     2.4822    -0.0234 H       
  40 H40            4.4192     3.9236    -0.0200 H       
  41 H41           -0.2389    -2.5472     0.5158 H       
  42 H42           -2.0184    -2.5799     0.5402 H       
  43 H43           -2.3487    -2.9330    -4.3779 H       
  44 H44            0.6083    -3.9513    -1.4077 H       
  45 H45           -5.5283     4.3821    -1.5891 H       
  46 H46           -1.2699    -4.0310    -5.8611 H       
  47 H47            0.3761    -4.6466    -7.6903 H       
  48 H48            1.5704    -5.2391    -6.4159 H       
  49 H49           -0.1298    -6.9423    -5.6144 H       
  50 H50           -1.3241    -6.3498    -6.8887 H       
@<TRIPOS>BOND
   1    1    7 ar
   2    1    6 ar
   3    1    2 ar
   4    2    3 ar
   5    2   10 ar
   6    3   11 1
   7    3    4 ar
   8    4    5 ar
   9    4   32 1
  10    5   15 1
  11    5    6 ar
  12    7    8 ar
  13    7   33 1
  14    8    9 ar
  15    8   18 1
  16    9   10 ar
  17    9   34 1
  18   10   35 1
  19   11   12 ar
  20   11   14 ar
  21   12   13 ar
  22   12   36 1
  23   13   24 ar
  24   13   37 1
  25   14   25 ar
  26   14   38 1
  27   15   16 am
  28   15   17 2
  29   16   39 1
  30   16   40 1
  31   18   19 1
  32   18   41 1
  33   18   42 1
  34   19   20 1
  35   19   23 1
  36   20   21 2
  37   21   22 1
  38   21   43 1
  39   22   23 2
  40   22   27 1
  41   23   44 1
  42   24   25 ar
  43   24   26 1
  44   25   45 1
  45   27   28 2
  46   27   29 1
  47   29   30 1
  48   29   31 1
  49   29   46 1
  50   30   31 1
  51   30   47 1
  52   30   48 1
  53   31   49 1
  54   31   50 1

#	End of record

