#	Name: ASD03090224
#	Creating user name:	WinNT
#	Creation time:	15. 06. 2019 20:28

#	Modifying user name:	WinNT
#	Modification time:	15. 06. 2019 20:28

#	Program:	/corina/corina34_cracker 3.40 0067  02.08.2006

@<TRIPOS>MOLECULE
ASD03090224
  52   55    0    0    0
SMALL
NO_CHARGES


@<TRIPOS>ATOM
   1 C1             0.1941     1.0487     0.8783 C.ar    
   2 N2            -0.9251     1.4739     1.4461 N.ar    
   3 C3            -2.0694     0.8423     1.2820 C.ar    
   4 C4            -2.1406    -0.3072     0.4965 C.ar    
   5 C5            -0.9754    -0.7843    -0.1188 C.ar    
   6 C6             0.2009    -0.0891     0.0754 C.ar    
   7 C7            -3.4272    -1.0132     0.3155 C.2     
   8 N8            -6.9335    -1.2541     0.4110 N.pl3   
   9 C9            -7.4344    -0.0755     0.9699 C.ar    
  10 C10           -6.7045     0.6002     1.9395 C.ar    
  11 C11           -7.2027     1.7650     2.4899 C.ar    
  12 C12           -8.4265     2.2584     2.0768 C.ar    
  13 C13           -9.1559     1.5881     1.1116 C.ar    
  14 C14           -8.6612     0.4263     0.5530 C.ar    
  15 N15           -4.6252    -0.5154     0.5512 N.2     
  16 C16           -5.5550    -1.4326     0.2774 C.2     
  17 N17           -4.9655    -2.5298    -0.1372 N.2     
  18 N18           -3.5834    -2.2815    -0.1266 N.pl3   
  19 C19           -2.5211    -3.2143    -0.5107 C.3     
  20 C20           -2.2809    -3.1208    -2.0189 C.3     
  21 O21           -1.2447    -4.0306    -2.3935 O.3     
  22 N22            1.3744     1.7501     1.0818 N.3     
  23 C23            1.1516     2.9159     1.9494 C.3     
  24 C24            2.4862     3.6245     2.1956 C.3     
  25 O25            3.0664     3.9872     0.9398 O.3     
  26 C26            3.2977     2.8757     0.0700 C.3     
  27 C27            1.9713     2.1595    -0.1978 C.3     
  28 C28          -10.4895     2.1295     0.6649 C.3     
  29 F29          -10.7721     3.3080     1.3637 F       
  30 F30          -10.4472     2.3997    -0.7071 F       
  31 F31          -11.4871     1.1834     0.9234 F       
  32 H32           -2.9612     1.2186     1.7611 H       
  33 H33           -0.9982    -1.6721    -0.7333 H       
  34 H34            1.1178    -0.4279    -0.3839 H       
  35 H35           -7.5432    -1.9483     0.1157 H       
  36 H36           -5.7488     0.2151     2.2628 H       
  37 H37           -6.6359     2.2906     3.2441 H       
  38 H38           -8.8139     3.1692     2.5091 H       
  39 H39           -9.2311    -0.0964    -0.2009 H       
  40 H40           -1.6038    -2.9587     0.0198 H       
  41 H41           -2.8190    -4.2305    -0.2525 H       
  42 H42           -3.1982    -3.3764    -2.5494 H       
  43 H43           -1.9830    -2.1046    -2.2770 H       
  44 H44           -1.0389    -4.0250    -3.3383 H       
  45 H45            0.4585     3.6033     1.4644 H       
  46 H46            0.7332     2.5870     2.9006 H       
  47 H47            2.3175     4.5216     2.7912 H       
  48 H48            3.1611     2.9547     2.7285 H       
  49 H49            3.7159     3.2313    -0.8717 H       
  50 H50            3.9962     2.1841     0.5410 H       
  51 H51            2.1513     1.2785    -0.8139 H       
  52 H52            1.2914     2.8349    -0.7171 H       
@<TRIPOS>BOND
   1    1    2 ar
   2    1   22 1
   3    1    6 ar
   4    2    3 ar
   5    3    4 ar
   6    3   32 1
   7    4    5 ar
   8    4    7 1
   9    5    6 ar
  10    5   33 1
  11    6   34 1
  12    7   15 2
  13    7   18 1
  14    8    9 1
  15    8   16 1
  16    8   35 1
  17    9   10 ar
  18    9   14 ar
  19   10   11 ar
  20   10   36 1
  21   11   12 ar
  22   11   37 1
  23   12   13 ar
  24   12   38 1
  25   13   14 ar
  26   13   28 1
  27   14   39 1
  28   15   16 1
  29   16   17 2
  30   17   18 1
  31   18   19 1
  32   19   20 1
  33   19   40 1
  34   19   41 1
  35   20   21 1
  36   20   42 1
  37   20   43 1
  38   21   44 1
  39   22   23 1
  40   22   27 1
  41   23   24 1
  42   23   45 1
  43   23   46 1
  44   24   25 1
  45   24   47 1
  46   24   48 1
  47   25   26 1
  48   26   27 1
  49   26   49 1
  50   26   50 1
  51   27   51 1
  52   27   52 1
  53   28   29 1
  54   28   30 1
  55   28   31 1

#	End of record

