#	Name: ASD01810297
#	Creating user name:	WinNT
#	Creation time:	15. 06. 2019 19:24

#	Modifying user name:	WinNT
#	Modification time:	15. 06. 2019 19:24

#	Program:	/corina/corina34_cracker 3.40 0067  02.08.2006

@<TRIPOS>MOLECULE
ASD01810297
  44   47    0    0    0
SMALL
NO_CHARGES


@<TRIPOS>ATOM
   1 C1            -0.0167     1.3820     0.0096 C.ar    
   2 C2             0.0021    -0.0041     0.0020 C.ar    
   3 C3             1.1959    -0.6932    -0.0127 C.ar    
   4 C4             2.4016     0.0019    -0.0200 C.ar    
   5 C5             2.3831     1.4075    -0.0128 C.ar    
   6 C6             1.1665     2.0939     0.0022 C.ar    
   7 N7             3.6010    -0.6771    -0.0337 N.pl3   
   8 C8             4.7870    -0.0549    -0.0404 C.2     
   9 C9             4.8957     1.3208    -0.0340 C.2     
  10 C10            3.6667     2.1313    -0.0207 C.2     
  11 O11            3.7091     3.3491    -0.0150 O.2     
  12 C12            3.5775    -2.1419    -0.0409 C.3     
  13 C13            3.5572    -2.6371    -1.4640 C.ar    
  14 C14            4.7329    -2.6859    -2.1949 C.ar    
  15 C15            4.7183    -3.1392    -3.5011 C.ar    
  16 C16            3.5193    -3.5468    -4.0800 C.ar    
  17 C17            2.3403    -3.4956    -3.3393 C.ar    
  18 C18            2.3658    -3.0466    -2.0345 C.ar    
  19 C19            3.4972    -4.0341    -5.4824 C.2     
  20 C20            6.2161     1.9660    -0.0412 C.2     
  21 O21            6.3092     3.3109    -0.0348 O.3     
  22 O22            7.2244     1.2870    -0.0529 O.2     
  23 F23            1.1476     3.4448     0.0091 F       
  24 C24            2.3992    -4.4617    -6.1701 C.2     
  25 N25            2.8046    -4.8165    -7.4060 N.pl3   
  26 N26            4.1861    -4.6053    -7.4908 N.2     
  27 C27            4.6049    -4.1331    -6.3467 C.2     
  28 F28            5.8950    -2.2898    -1.6309 F       
  29 C29            1.9475    -5.3340    -8.4756 C.3     
  30 H30           -0.9604     1.9071     0.0170 H       
  31 H31           -0.9295    -0.5505     0.0080 H       
  32 H32            1.1956    -1.7731    -0.0181 H       
  33 H33            5.6884    -0.6497    -0.0508 H       
  34 H34            4.4660    -2.5220     0.4634 H       
  35 H35            2.6863    -2.4936     0.4789 H       
  36 H36            5.6348    -3.1766    -4.0713 H       
  37 H37            1.4082    -3.8109    -3.7844 H       
  38 H38            1.4519    -3.0073    -1.4602 H       
  39 H39            7.1990     3.6894    -0.0400 H       
  40 H40            1.3883    -4.5080    -5.7926 H       
  41 H41            5.6240    -3.8708    -6.1038 H       
  42 H42            1.5679    -4.5036    -9.0708 H       
  43 H43            2.5257    -6.0033    -9.1127 H       
  44 H44            1.1114    -5.8802    -8.0389 H       
@<TRIPOS>BOND
   1    1    2 ar
   2    1    6 ar
   3    1   30 1
   4    2    3 ar
   5    2   31 1
   6    3    4 ar
   7    3   32 1
   8    4    5 ar
   9    4    7 1
  10    5    6 ar
  11    5   10 1
  12    6   23 1
  13    7    8 1
  14    7   12 1
  15    8    9 2
  16    8   33 1
  17    9   10 1
  18    9   20 1
  19   10   11 2
  20   12   13 1
  21   12   34 1
  22   12   35 1
  23   13   14 ar
  24   13   18 ar
  25   14   15 ar
  26   14   28 1
  27   15   16 ar
  28   15   36 1
  29   16   17 ar
  30   16   19 1
  31   17   18 ar
  32   17   37 1
  33   18   38 1
  34   19   24 2
  35   19   27 1
  36   20   21 1
  37   20   22 2
  38   21   39 1
  39   24   25 1
  40   24   40 1
  41   25   26 1
  42   25   29 1
  43   26   27 2
  44   27   41 1
  45   29   42 1
  46   29   43 1
  47   29   44 1

#	End of record

