#	Name: ASD01001258
#	Creating user name:	WinNT
#	Creation time:	15. 06. 2019 18:55

#	Modifying user name:	WinNT
#	Modification time:	15. 06. 2019 18:55

#	Program:	/corina/corina34_cracker 3.40 0067  02.08.2006

@<TRIPOS>MOLECULE
ASD01001258
  50   52    0    0    0
SMALL
NO_CHARGES


@<TRIPOS>ATOM
   1 C1             0.7218     1.4964    -1.6003 C.ar    
   2 C2             0.8365     0.1405    -1.8405 C.ar    
   3 C3             2.0678    -0.4845    -1.7217 C.ar    
   4 C4             3.1872     0.2437    -1.3626 C.ar    
   5 C5             3.0850     1.5984    -1.1202 C.ar    
   6 C6             1.8490     2.2349    -1.2382 C.ar    
   7 C7             1.7339     3.6866    -0.9801 C.2     
   8 S8             0.2584     4.6722    -1.0773 S.3     
   9 C9             1.0631     6.2522    -0.6142 C.3     
  10 N10            2.4636     5.8330    -0.4220 N.am    
  11 N11            2.6864     4.4904    -0.6330 N.2     
  12 C12            0.9505     7.2612    -1.7279 C.ar    
  13 F13           -0.2532    -0.5769    -2.1913 F       
  14 C14            3.4412     6.6894    -0.0652 C.2     
  15 O15            3.2087     7.8811     0.0085 O.2     
  16 N16            4.6763     6.2255     0.2099 N.am    
  17 C17            5.7676     7.1643     0.4819 C.3     
  18 C18            4.9276     4.7825     0.2369 C.3     
  19 C19            1.7670     7.1587    -2.8386 C.ar    
  20 C20            1.6638     8.0842    -3.8602 C.ar    
  21 C21            0.7437     9.1120    -3.7713 C.ar    
  22 C22           -0.0735     9.2140    -2.6610 C.ar    
  23 C23            0.0268     8.2860    -1.6414 C.ar    
  24 C24            0.4744     6.8061     0.6848 C.3     
  25 C25            0.7834     5.8456     1.8350 C.3     
  26 C26            0.1946     6.3995     3.1341 C.3     
  27 N27            0.4913     5.4773     4.2384 N.3     
  28 H28           -0.2369     1.9842    -1.6969 H       
  29 H29            2.1532    -1.5445    -1.9100 H       
  30 H30            4.1439    -0.2491    -1.2713 H       
  31 H31            3.9605     2.1650    -0.8392 H       
  32 H32            5.5154     7.7728     1.3503 H       
  33 H33            6.6838     6.6085     0.6814 H       
  34 H34            5.9156     7.8100    -0.3837 H       
  35 H35            5.1152     4.4273    -0.7764 H       
  36 H36            5.7973     4.5768     0.8609 H       
  37 H37            4.0572     4.2697     0.6463 H       
  38 H38            2.4859     6.3556    -2.9081 H       
  39 H39            2.3022     8.0045    -4.7276 H       
  40 H40            0.6635     9.8355    -4.5691 H       
  41 H41           -0.7921    10.0172    -2.5913 H       
  42 H42           -0.6116     8.3657    -0.7739 H       
  43 H43            0.9146     7.7804     0.8969 H       
  44 H44           -0.6054     6.9106     0.5789 H       
  45 H45            0.3431     4.8713     1.6230 H       
  46 H46            1.8632     5.7411     1.9410 H       
  47 H47            0.6349     7.3738     3.3461 H       
  48 H48           -0.8851     6.5040     3.0281 H       
  49 H49            1.4839     5.3134     4.3159 H       
  50 H50            0.1126     5.8211     5.1082 H       
@<TRIPOS>BOND
   1    1    2 ar
   2    1    6 ar
   3    1   28 1
   4    2    3 ar
   5    2   13 1
   6    3    4 ar
   7    3   29 1
   8    4    5 ar
   9    4   30 1
  10    5    6 ar
  11    5   31 1
  12    6    7 1
  13    7    8 1
  14    7   11 2
  15    8    9 1
  16    9   10 1
  17    9   12 1
  18    9   24 1
  19   10   11 1
  20   10   14 am
  21   12   19 ar
  22   12   23 ar
  23   14   15 2
  24   14   16 am
  25   16   17 1
  26   16   18 1
  27   17   32 1
  28   17   33 1
  29   17   34 1
  30   18   35 1
  31   18   36 1
  32   18   37 1
  33   19   20 ar
  34   19   38 1
  35   20   21 ar
  36   20   39 1
  37   21   22 ar
  38   21   40 1
  39   22   23 ar
  40   22   41 1
  41   23   42 1
  42   24   25 1
  43   24   43 1
  44   24   44 1
  45   25   26 1
  46   25   45 1
  47   25   46 1
  48   26   27 1
  49   26   47 1
  50   26   48 1
  51   27   49 1
  52   27   50 1

#	End of record

