#	Name: ASD03331662
#	Creating user name:	WinNT
#	Creation time:	15. 06. 2019 20:39

#	Modifying user name:	WinNT
#	Modification time:	15. 06. 2019 20:39

#	Program:	/corina/corina34_cracker 3.40 0067  02.08.2006

@<TRIPOS>MOLECULE
ASD03331662
  40   42    0    0    0
SMALL
NO_CHARGES


@<TRIPOS>ATOM
   1 C1             0.3249     1.3117    -0.5319 C.ar    
   2 C2             0.4063    -0.0524    -0.5492 C.ar    
   3 C3             1.6313    -0.6875    -0.3996 C.ar    
   4 C4             2.7864     0.0445    -0.2306 C.ar    
   5 C5             1.4826     2.0729    -0.3624 C.ar    
   6 C6             1.7553     3.5107    -0.2965 C.2     
   7 C7             2.7269     1.4339    -0.2099 C.ar    
   8 N8             3.6752     2.4214    -0.0632 N.pl3   
   9 C9             3.0783     3.6514    -0.1179 C.2     
  10 S10            3.9212     5.1920     0.0258 S.o2    
  11 O11            5.2892     4.8813     0.2523 O.2     
  12 O12            3.4759     5.9957    -1.0581 O.2     
  13 N13            3.3731     5.9238     1.4066 N.am    
  14 C14            3.6270     5.3088     2.7118 C.3     
  15 C15            1.9330     7.3943     5.3639 C.ar    
  16 C16            2.1439     6.4616     4.3658 C.ar    
  17 C17            3.3977     6.3263     3.7996 C.ar    
  18 C18            4.4414     7.1235     4.2311 C.ar    
  19 C19            4.2319     8.0562     5.2294 C.ar    
  20 C20            2.9772     8.1922     5.7965 C.ar    
  21 C21            0.7427     4.6212    -0.4081 C.3     
  22 C22           -0.8440    -0.8736    -0.7317 C.3     
  23 Cl23           2.7131     9.3642     7.0495 Cl      
  24 H24           -0.6312     1.7991    -0.6534 H       
  25 H25            1.6796    -1.7663    -0.4154 H       
  26 H26            3.7347    -0.4590    -0.1143 H       
  27 H27            4.6249     2.2679     0.0605 H       
  28 H28            2.8839     6.7595     1.3511 H       
  29 H29            2.9507     4.4660     2.8542 H       
  30 H30            4.6583     4.9582     2.7538 H       
  31 H31            0.9524     7.5030     5.8030 H       
  32 H32            1.3289     5.8385     4.0283 H       
  33 H33            5.4207     7.0173     3.7884 H       
  34 H34            5.0475     8.6785     5.5669 H       
  35 H35            0.3034     4.8121     0.5710 H       
  36 H36            1.2332     5.5253    -0.7688 H       
  37 H37           -0.0410     4.3294    -1.1073 H       
  38 H38           -1.0106    -1.0506    -1.7943 H       
  39 H39           -0.7301    -1.8281    -0.2179 H       
  40 H40           -1.6958    -0.3361    -0.3150 H       
@<TRIPOS>BOND
   1    1    2 ar
   2    1    5 ar
   3    1   24 1
   4    2    3 ar
   5    2   22 1
   6    3    4 ar
   7    3   25 1
   8    4    7 ar
   9    4   26 1
  10    5    7 ar
  11    5    6 1
  12    6    9 2
  13    6   21 1
  14    7    8 1
  15    8    9 1
  16    8   27 1
  17    9   10 1
  18   10   11 2
  19   10   12 2
  20   10   13 am
  21   13   14 1
  22   13   28 1
  23   14   17 1
  24   14   29 1
  25   14   30 1
  26   15   16 ar
  27   15   20 ar
  28   15   31 1
  29   16   17 ar
  30   16   32 1
  31   17   18 ar
  32   18   19 ar
  33   18   33 1
  34   19   20 ar
  35   19   34 1
  36   20   23 1
  37   21   35 1
  38   21   36 1
  39   21   37 1
  40   22   38 1
  41   22   39 1
  42   22   40 1

#	End of record

