#	Name: ASD01320040
#	Creating user name:	WinNT
#	Creation time:	15. 06. 2019 19:15

#	Modifying user name:	WinNT
#	Modification time:	15. 06. 2019 19:15

#	Program:	/corina/corina34_cracker 3.40 0067  02.08.2006

@<TRIPOS>MOLECULE
ASD01320040
  82   86    0    0    0
SMALL
NO_CHARGES


@<TRIPOS>ATOM
   1 C1            -1.2315     2.7580     1.2798 C.3     
   2 C2            -0.3972     1.5813     0.7805 C.3     
   3 C3            -1.2865     0.4269     0.3060 C.3     
   4 C4            -2.3135     0.0644     1.3586 C.3     
   5 C5            -3.1118     1.2310     1.9282 C.3     
   6 C6            -2.1250     2.3007     2.4312 C.3     
   7 C7            -3.2732    -1.0329     0.9024 C.3     
   8 C8            -3.9423    -1.6035     2.1656 C.3     
   9 C9            -4.7398    -0.5208     2.8849 C.3     
  10 C10           -3.9061     0.7281     3.1365 C.3     
  11 C11           -5.2691    -1.0545     4.2250 C.3     
  12 C12           -5.7976     0.0496     5.0909 C.2     
  13 C13           -5.5758     1.3169     4.8644 C.2     
  14 C14           -4.8021     1.8386     3.6872 C.3     
  15 C15           -6.2948    -2.1589     4.0104 C.3     
  16 C16           -7.0206    -2.5186     5.3100 C.3     
  17 C17           -7.7115    -1.2926     5.8939 C.3     
  18 C18           -6.6546    -0.2667     6.3059 C.3     
  19 C19           -8.5732    -1.6713     7.0966 C.3     
  20 C20           -7.7163    -2.1894     8.2458 C.3     
  21 C21           -6.6757    -1.1492     8.6617 C.3     
  22 C22           -5.8053    -0.7933     7.4524 C.3     
  23 C23           -1.8936     0.7438    -1.0552 C.3     
  24 O24            0.4309     2.0112    -0.3039 O.3     
  25 C25           -4.0200     1.8869     0.8961 C.3     
  26 C26           -5.9654    -0.1745     2.0241 C.3     
  27 H27           -7.1644     0.6579     6.6152 H       
  28 C28           -7.3497     0.0977     9.2261 C.3     
  29 H29           -5.2825    -1.7055     7.1576 H       
  30 C30           -0.3446    -0.7884     0.1154 C.3     
  31 O31           -0.3452     3.7791     1.7642 O.3     
  32 C32           -4.0767    -1.6774     4.9681 C.3     
  33 C33           -5.7763    -1.7624     9.7464 C.3     
  34 C34           -8.6154    -0.6700     4.8555 C.2     
  35 O35           -8.4312     0.4698     4.4995 O.2     
  36 O36           -9.6231    -1.3831     4.3285 O.3     
  37 H37           -1.8194     3.1790     0.4700 H       
  38 H38            0.2413     1.2246     1.5930 H       
  39 H39           -1.7439    -0.3648     2.2200 H       
  40 H40           -1.5129     1.8735     3.2239 H       
  41 H41           -2.6877     3.1494     2.8166 H       
  42 H42           -4.0219    -0.6578     0.2201 H       
  43 H43           -2.7239    -1.8439     0.4198 H       
  44 H44           -4.6097    -2.4141     1.8657 H       
  45 H45           -3.1423    -2.0104     2.7796 H       
  46 H46           -3.1572     0.4943     3.9206 H       
  47 H47           -5.9742     2.0339     5.5690 H       
  48 H48           -4.1717     2.6685     4.0290 H       
  49 H49           -5.4958     2.2179     2.9460 H       
  50 H50           -7.0276    -1.9430     3.2461 H       
  51 H51           -5.7525    -3.0640     3.6770 H       
  52 H52           -7.7744    -3.2827     5.0904 H       
  53 H53           -6.3131    -2.9296     6.0270 H       
  54 H54           -9.1522    -0.8044     7.4137 H       
  55 H55           -9.2744    -2.4561     6.7914 H       
  56 H56           -8.3567    -2.4200     9.1012 H       
  57 H57           -7.2054    -3.1044     7.9363 H       
  58 H58           -5.0705    -0.0439     7.7501 H       
  59 H59           -1.1037     0.7818    -1.8053 H       
  60 H60           -2.6114    -0.0317    -1.3223 H       
  61 H61           -2.3999     1.7081    -1.0115 H       
  62 H62            1.0465     2.7199    -0.0718 H       
  63 H63           -4.5602     1.1166     0.3457 H       
  64 H64           -4.7322     2.5395     1.4012 H       
  65 H65           -3.4176     2.4739     0.2028 H       
  66 H66           -6.6144    -1.0470     1.9484 H       
  67 H67           -6.5133     0.6469     2.4858 H       
  68 H68           -5.6375     0.1221     1.0278 H       
  69 H69           -7.9430    -0.1736    10.0993 H       
  70 H70           -6.5889     0.8229     9.5148 H       
  71 H71           -7.9989     0.5348     8.4673 H       
  72 H72            0.1371    -1.0269     1.0637 H       
  73 H73           -0.9237    -1.6472    -0.2240 H       
  74 H74            0.4154    -0.5461    -0.6274 H       
  75 H75            0.2670     4.1175     1.0965 H       
  76 H76           -3.3623    -0.8962     5.2281 H       
  77 H77           -4.4293    -2.1643     5.8773 H       
  78 H78           -3.5927    -2.4133     4.3261 H       
  79 H79           -5.2786    -2.6468     9.3486 H       
  80 H80           -5.0281    -1.0318    10.0538 H       
  81 H81           -6.3843    -2.0436    10.6063 H       
  82 H82          -10.1744    -0.9421     3.6677 H       
@<TRIPOS>BOND
   1    1    2 1
   2    1   31 1
   3    1    6 1
   4    1   37 1
   5    2    3 1
   6    2   24 1
   7    2   38 1
   8    3    4 1
   9    3   23 1
  10    3   30 1
  11    4    5 1
  12    4    7 1
  13    4   39 1
  14    5    6 1
  15    5   25 1
  16    5   10 1
  17    6   40 1
  18    6   41 1
  19    7    8 1
  20    7   42 1
  21    7   43 1
  22    8    9 1
  23    8   44 1
  24    8   45 1
  25    9   10 1
  26    9   11 1
  27    9   26 1
  28   10   14 1
  29   10   46 1
  30   11   12 1
  31   11   15 1
  32   11   32 1
  33   12   13 2
  34   12   18 1
  35   13   14 1
  36   13   47 1
  37   14   48 1
  38   14   49 1
  39   15   16 1
  40   15   50 1
  41   15   51 1
  42   16   17 1
  43   16   52 1
  44   16   53 1
  45   17   18 1
  46   17   19 1
  47   17   34 1
  48   18   27 1
  49   18   22 1
  50   19   20 1
  51   19   54 1
  52   19   55 1
  53   20   21 1
  54   20   56 1
  55   20   57 1
  56   21   22 1
  57   21   28 1
  58   21   33 1
  59   22   29 1
  60   22   58 1
  61   23   59 1
  62   23   60 1
  63   23   61 1
  64   24   62 1
  65   25   63 1
  66   25   64 1
  67   25   65 1
  68   26   66 1
  69   26   67 1
  70   26   68 1
  71   28   69 1
  72   28   70 1
  73   28   71 1
  74   30   72 1
  75   30   73 1
  76   30   74 1
  77   31   75 1
  78   32   76 1
  79   32   77 1
  80   32   78 1
  81   33   79 1
  82   33   80 1
  83   33   81 1
  84   34   35 2
  85   34   36 1
  86   36   82 1

#	End of record

