#	Name: ASD03320226
#	Creating user name:	WinNT
#	Creation time:	15. 06. 2019 20:36

#	Modifying user name:	WinNT
#	Modification time:	15. 06. 2019 20:36

#	Program:	/corina/corina34_cracker 3.40 0067  02.08.2006

@<TRIPOS>MOLECULE
ASD03320226
  49   50    0    0    0
SMALL
NO_CHARGES


@<TRIPOS>ATOM
   1 C1             0.0909     1.2330     0.0739 C.ar    
   2 C2             0.1371    -0.1485     0.0711 C.ar    
   3 C3             1.3566    -0.7992     0.0509 C.ar    
   4 C4             2.5298    -0.0683     0.0330 C.ar    
   5 C5             2.4835     1.3133     0.0348 C.ar    
   6 C6             1.2641     1.9639     0.0565 C.ar    
   7 C7             3.7625     2.1101     0.0163 C.3     
   8 N8             4.1573     2.3701    -1.3745 N.4     
   9 C9             5.4041     3.1468    -1.3926 C.3     
  10 C10            5.8153     3.4177    -2.8412 C.3     
  11 C11            7.1758     4.1172    -2.8628 C.3     
  12 O12            7.6136     4.2656    -4.2150 O.3     
  13 C13            8.8143     4.8728    -4.4120 C.ar    
  14 C14            9.5546     5.3159    -3.3279 C.ar    
  15 C15           10.7753     5.9325    -3.5297 C.ar    
  16 C16           11.2612     6.1092    -4.8122 C.ar    
  17 C17           10.5289     5.6701    -5.8989 C.ar    
  18 C18            9.3056     5.0457    -5.7039 C.ar    
  19 N19            8.5639     4.5945    -6.8038 N.am    
  20 C20            9.1891     4.2852    -7.9570 C.2     
  21 C21            8.4045     3.7135    -9.1097 C.3     
  22 O22           10.3833     4.4669    -8.0671 O.2     
  23 C23           -1.1418    -0.9453     0.0906 C.3     
  24 F24           -1.5589    -1.1899    -1.2222 F       
  25 F25           -0.9231    -2.1624     0.7449 F       
  26 F26           -2.1308    -0.2233     0.7672 F       
  27 O27            4.8393     4.2547    -3.4648 O.3     
  28 H28           -0.8619     1.7414     0.0851 H       
  29 H29            1.3927    -1.8786     0.0494 H       
  30 H30            3.4825    -0.5767     0.0179 H       
  31 H31            1.2279     3.0433     0.0583 H       
  32 H32            3.6081     3.0571     0.5333 H       
  33 H33            4.5491     1.5463     0.5179 H       
  34 H34            4.3003     1.4934    -1.8531 H       
  35 H35            3.4292     2.8920    -1.8389 H       
  36 H36            5.2496     4.0939    -0.8756 H       
  37 H37            6.1906     2.5831    -0.8910 H       
  38 H38            5.8834     2.4738    -3.3821 H       
  39 H39            7.0865     5.0999    -2.3999 H       
  40 H40            7.9005     3.5195    -2.3098 H       
  41 H41            9.1778     5.1797    -2.3249 H       
  42 H42           11.3508     6.2776    -2.6835 H       
  43 H43           12.2152     6.5918    -4.9651 H       
  44 H44           10.9108     5.8094    -6.8994 H       
  45 H45            7.6005     4.5048    -6.7352 H       
  46 H46            7.6325     4.4218    -9.4105 H       
  47 H47            9.0747     3.5284    -9.9491 H       
  48 H48            7.9388     2.7769    -8.8032 H       
  49 H49            4.7255     5.1135    -3.0352 H       
@<TRIPOS>BOND
   1    1    2 ar
   2    1    6 ar
   3    1   28 1
   4    2    3 ar
   5    2   23 1
   6    3    4 ar
   7    3   29 1
   8    4    5 ar
   9    4   30 1
  10    5    6 ar
  11    5    7 1
  12    6   31 1
  13    7    8 1
  14    7   32 1
  15    7   33 1
  16    8    9 1
  17    8   34 1
  18    8   35 1
  19    9   10 1
  20    9   36 1
  21    9   37 1
  22   10   11 1
  23   10   27 1
  24   10   38 1
  25   11   12 1
  26   11   39 1
  27   11   40 1
  28   12   13 1
  29   13   14 ar
  30   13   18 ar
  31   14   15 ar
  32   14   41 1
  33   15   16 ar
  34   15   42 1
  35   16   17 ar
  36   16   43 1
  37   17   18 ar
  38   17   44 1
  39   18   19 1
  40   19   20 am
  41   19   45 1
  42   20   21 1
  43   20   22 2
  44   21   46 1
  45   21   47 1
  46   21   48 1
  47   23   24 1
  48   23   25 1
  49   23   26 1
  50   27   49 1

#	End of record

