#	Name: ASD06170244
#	Creating user name:	WinNT
#	Creation time:	15. 06. 2019 21:05

#	Modifying user name:	WinNT
#	Modification time:	15. 06. 2019 21:05

#	Program:	/corina/corina34_cracker 3.40 0067  02.08.2006

@<TRIPOS>MOLECULE
ASD06170244
  77   81    0    0    0
SMALL
NO_CHARGES


@<TRIPOS>ATOM
   1 N1            -0.1330     1.4228     0.1703 N.am    
   2 N2            -0.3219     0.0857    -0.1917 N.pl3   
   3 C3             0.8446    -0.5818    -0.1066 C.2     
   4 C4             1.8237     0.2980     0.3118 C.2     
   5 C5             1.1660     1.6026     0.4874 C.2     
   6 C6             3.2415    -0.0081     0.5369 C.2     
   7 O7             3.6570    -1.1370     0.3526 O.2     
   8 N8             4.0832     0.9610     0.9478 N.am    
   9 C9            -1.5995    -0.5023    -0.6019 C.3     
  10 C10            1.0474    -2.0429    -0.4150 C.3     
  11 C11            5.3962     0.6395     1.3132 C.ar    
  12 C12            6.0389    -0.4372     0.7170 C.ar    
  13 C13            7.3355    -0.7536     1.0780 C.ar    
  14 C14            7.9941     0.0061     2.0370 C.ar    
  15 C15            7.3509     1.0811     2.6321 C.ar    
  16 C16            6.0577     1.4010     2.2677 C.ar    
  17 O17            9.2694    -0.3047     2.3924 O.3     
  18 N18           12.2785     0.6168    -0.2728 N.ar    
  19 C19           12.6222     0.1213     0.9219 C.ar    
  20 C20           11.6196    -0.2081     1.8659 C.ar    
  21 C21           10.2640    -0.0038     1.5219 C.ar    
  22 C22            9.9831     0.5124     0.2688 C.ar    
  23 C23           11.0228     0.8100    -0.6025 C.ar    
  24 O24            1.6907     2.6398     0.8475 O.2     
  25 C25           -1.1235     2.4100     0.1938 C.ar    
  26 C26           -1.1361     3.3592     1.2077 C.ar    
  27 C27           -2.1152     4.3330     1.2278 C.ar    
  28 C28           -3.0824     4.3637     0.2399 C.ar    
  29 C29           -3.0729     3.4198    -0.7707 C.ar    
  30 C30           -2.0932     2.4469    -0.7998 C.ar    
  31 C31           11.9822    -0.7282     3.1173 C.ar    
  32 C32           13.2960    -0.9138     3.4185 C.ar    
  33 C33           14.2943    -0.5919     2.4939 C.ar    
  34 C34           13.9707    -0.0797     1.2584 C.ar    
  35 C35           15.8711    -1.3199     4.1168 C.3     
  36 O36           15.5987    -0.7863     2.8194 O.3     
  37 N37            0.2957    -2.8538     0.5460 N.am    
  38 F38            7.9618    -1.8013     0.4989 F       
  39 C39            0.3283    -4.1987     0.4640 C.2     
  40 O40           -0.3625    -4.9439     1.3472 O.3     
  41 O41            0.9812    -4.7386    -0.4071 O.2     
  42 C42           -0.2814    -6.3860     1.1987 C.3     
  43 C43            1.1758    -6.8316     1.3358 C.3     
  44 C44           -1.1247    -7.0587     2.2838 C.3     
  45 C45           -0.8098    -6.7873    -0.1799 C.3     
  46 H46            3.7794     1.8812     0.9905 H       
  47 H47           -2.3930     0.2361    -0.4866 H       
  48 H48           -1.5390    -0.8108    -1.6456 H       
  49 H49           -1.8170    -1.3697     0.0213 H       
  50 H50            0.6931    -2.2538    -1.4240 H       
  51 H51            2.1077    -2.2854    -0.3442 H       
  52 H52            5.5262    -1.0275    -0.0281 H       
  53 H53            7.8630     1.6709     3.3780 H       
  54 H54            5.5593     2.2412     2.7281 H       
  55 H55            8.9594     0.6824    -0.0305 H       
  56 H56           10.7919     1.2124    -1.5777 H       
  57 H57           -0.3813     3.3355     1.9797 H       
  58 H58           -2.1258     5.0711     2.0161 H       
  59 H59           -3.8470     5.1262     0.2579 H       
  60 H60           -3.8301     3.4461    -1.5404 H       
  61 H61           -2.0861     1.7102    -1.5896 H       
  62 H62           11.2204    -0.9803     3.8400 H       
  63 H63           13.5710    -1.3141     4.3832 H       
  64 H64           14.7493     0.1658     0.5513 H       
  65 H65           15.4768    -0.6456     4.8771 H       
  66 H66           15.3960    -2.2960     4.2152 H       
  67 H67           16.9481    -1.4251     4.2476 H       
  68 H68           -0.2254    -2.4228     1.2414 H       
  69 H69            1.5523    -6.5458     2.3180 H       
  70 H70            1.2367    -7.9142     1.2244 H       
  71 H71            1.7766    -6.3524     0.5628 H       
  72 H72           -2.1628    -6.7412     2.1861 H       
  73 H73           -1.0638    -8.1413     2.1723 H       
  74 H74           -0.7482    -6.7728     3.2659 H       
  75 H75           -0.2091    -6.3081    -0.9529 H       
  76 H76           -0.7489    -7.8699    -0.2914 H       
  77 H77           -1.8480    -6.4698    -0.2776 H       
@<TRIPOS>BOND
   1    1    2 1
   2    1    5 am
   3    1   25 1
   4    2    3 1
   5    2    9 1
   6    3    4 2
   7    3   10 1
   8    4    5 1
   9    4    6 1
  10    5   24 2
  11    6    7 2
  12    6    8 am
  13    8   11 1
  14    8   46 1
  15    9   47 1
  16    9   48 1
  17    9   49 1
  18   10   37 1
  19   10   50 1
  20   10   51 1
  21   11   12 ar
  22   11   16 ar
  23   12   13 ar
  24   12   52 1
  25   13   14 ar
  26   13   38 1
  27   14   15 ar
  28   14   17 1
  29   15   16 ar
  30   15   53 1
  31   16   54 1
  32   17   21 1
  33   18   19 ar
  34   18   23 ar
  35   19   20 ar
  36   19   34 ar
  37   20   21 ar
  38   20   31 ar
  39   21   22 ar
  40   22   23 ar
  41   22   55 1
  42   23   56 1
  43   25   26 ar
  44   25   30 ar
  45   26   27 ar
  46   26   57 1
  47   27   28 ar
  48   27   58 1
  49   28   29 ar
  50   28   59 1
  51   29   30 ar
  52   29   60 1
  53   30   61 1
  54   31   32 ar
  55   31   62 1
  56   32   33 ar
  57   32   63 1
  58   33   34 ar
  59   33   36 1
  60   34   64 1
  61   35   36 1
  62   35   65 1
  63   35   66 1
  64   35   67 1
  65   37   39 am
  66   37   68 1
  67   39   40 1
  68   39   41 2
  69   40   42 1
  70   42   43 1
  71   42   44 1
  72   42   45 1
  73   43   69 1
  74   43   70 1
  75   43   71 1
  76   44   72 1
  77   44   73 1
  78   44   74 1
  79   45   75 1
  80   45   76 1
  81   45   77 1

#	End of record

