#	Name: ASD00320001
#	Creating user name:	WinNT
#	Creation time:	15. 06. 2019 18:35

#	Modifying user name:	WinNT
#	Modification time:	15. 06. 2019 18:35

#	Program:	/corina/corina34_cracker 3.40 0067  02.08.2006

@<TRIPOS>MOLECULE
ASD00320001
  27   28    0    0    0
SMALL
NO_CHARGES


@<TRIPOS>ATOM
   1 C1            -0.0184     1.5028     0.0103 C.2     
   2 N2             1.3055    -0.4734    -0.4867 N.3     
   3 C3             0.0021    -0.0041     0.0020 C.3     
   4 C4            -0.2279    -0.5251     1.4221 C.3     
   5 C5            -0.3300    -2.0284     1.3953 C.2     
   6 C6            -1.4593    -2.7509     1.3291 C.2     
   7 N7            -1.1594    -4.0860     1.3240 N.pl3   
   8 C8             0.2050    -4.2595     1.3885 C.ar    
   9 C9             1.0276    -5.3808     1.4116 C.ar    
  10 C10            2.3949    -5.2250     1.4804 C.ar    
  11 C11            2.9617    -3.9589     1.5269 C.ar    
  12 C12            2.1721    -2.8437     1.5058 C.ar    
  13 C13            0.7848    -2.9782     1.4300 C.ar    
  14 O14            1.0197     2.1211     0.0037 O.2     
  15 O15           -1.1898     2.1580     0.0194 O.3     
  16 H16            2.0536    -0.1430     0.1043 H       
  17 H17            1.3222    -1.4794    -0.5627 H       
  18 H18           -0.7864    -0.3745    -0.6531 H       
  19 H19            0.6068    -0.2288     2.0574 H       
  20 H20           -1.1526    -0.1051     1.8179 H       
  21 H21           -2.4570    -2.3395     1.2865 H       
  22 H22           -1.8110    -4.8033     1.2814 H       
  23 H23            0.5961    -6.3702     1.3761 H       
  24 H24            3.0320    -6.0969     1.4986 H       
  25 H25            4.0353    -3.8543     1.5806 H       
  26 H26            2.6202    -1.8617     1.5427 H       
  27 H27           -1.1523     3.1243     0.0245 H       
@<TRIPOS>BOND
   1    1    3 1
   2    1   14 2
   3    1   15 1
   4    2    3 1
   5    2   16 1
   6    2   17 1
   7    3    4 1
   8    3   18 1
   9    4    5 1
  10    4   19 1
  11    4   20 1
  12    5    6 2
  13    5   13 1
  14    6    7 1
  15    6   21 1
  16    7    8 1
  17    7   22 1
  18    8    9 ar
  19    8   13 ar
  20    9   10 ar
  21    9   23 1
  22   10   11 ar
  23   10   24 1
  24   11   12 ar
  25   11   25 1
  26   12   13 ar
  27   12   26 1
  28   15   27 1

#	End of record

