#	Name: ASD03092522
#	Creating user name:	WinNT
#	Creation time:	15. 06. 2019 20:32

#	Modifying user name:	WinNT
#	Modification time:	15. 06. 2019 20:32

#	Program:	/corina/corina34_cracker 3.40 0067  02.08.2006

@<TRIPOS>MOLECULE
ASD03092522
  44   47    0    0    0
SMALL
NO_CHARGES


@<TRIPOS>ATOM
   1 C1             0.0893     1.4265    -0.0509 C.3     
   2 O2             0.1044    -0.0024    -0.0564 O.3     
   3 C3             0.7091    -0.6167     0.9932 C.ar    
   4 C4             1.2714     0.1432     2.0107 C.ar    
   5 C5             1.8859    -0.4772     3.0773 C.ar    
   6 C6             1.9422    -1.8697     3.1343 C.ar    
   7 C7             1.3762    -2.6299     2.1110 C.ar    
   8 C8             0.7589    -2.0035     1.0496 C.ar    
   9 C9             2.6025    -2.5399     4.2792 C.ar    
  10 C10            2.6496    -3.9421     4.3078 C.ar    
  11 C11            3.2655    -4.5814     5.3744 C.ar    
  12 C12            3.3401    -6.0564     5.4477 C.2     
  13 O13            3.9710    -6.5894     6.3394 O.2     
  14 N14            2.7083    -6.8097     4.5259 N.am    
  15 C15            2.8681    -8.1935     4.5290 C.ar    
  16 C16            2.1299    -8.9733     3.6470 C.ar    
  17 C17            2.2975   -10.3478     3.6590 C.ar    
  18 C18            3.2012   -10.8970     4.5561 C.ar    
  19 C19            3.9040   -10.0608     5.4072 C.ar    
  20 F20            4.7860   -10.5890     6.2837 F       
  21 N21            3.7261    -8.7527     5.3687 N.ar    
  22 C22            3.8387    -3.7375     6.4231 C.ar    
  23 C23            4.4801    -4.2899     7.5371 C.ar    
  24 C24            5.0008    -3.4668     8.4913 C.ar    
  25 C25            4.9021    -2.0823     8.3710 C.ar    
  26 C26            4.2845    -1.5121     7.3007 C.ar    
  27 C27            3.7353    -2.3293     6.2951 C.ar    
  28 N28            3.1293    -1.7989     5.2318 N.ar    
  29 H29            1.1130     1.8007    -0.0427 H       
  30 H30           -0.4226     1.7879    -0.9428 H       
  31 H31           -0.4342     1.7809     0.8371 H       
  32 H32            1.2274     1.2214     1.9661 H       
  33 H33            2.3235     0.1143     3.8679 H       
  34 H34            1.4185    -3.7083     2.1521 H       
  35 H35            0.3169    -2.5917     0.2590 H       
  36 H36            2.2101    -4.5185     3.5072 H       
  37 H37            2.1424    -6.3883     3.8603 H       
  38 H38            1.4340    -8.5133     2.9612 H       
  39 H39            1.7367   -10.9781     2.9848 H       
  40 H40            3.3549   -11.9654     4.5909 H       
  41 H41            4.5619    -5.3618     7.6408 H       
  42 H42            5.4955    -3.8935     9.3513 H       
  43 H43            5.3225    -1.4512     9.1400 H       
  44 H44            4.2162    -0.4371     7.2233 H       
@<TRIPOS>BOND
   1    1    2 1
   2    1   29 1
   3    1   30 1
   4    1   31 1
   5    2    3 1
   6    3    8 ar
   7    3    4 ar
   8    4    5 ar
   9    4   32 1
  10    5    6 ar
  11    5   33 1
  12    6    7 ar
  13    6    9 1
  14    7    8 ar
  15    7   34 1
  16    8   35 1
  17    9   28 ar
  18    9   10 ar
  19   10   11 ar
  20   10   36 1
  21   11   12 1
  22   11   22 ar
  23   12   13 2
  24   12   14 am
  25   14   15 1
  26   14   37 1
  27   15   21 ar
  28   15   16 ar
  29   16   17 ar
  30   16   38 1
  31   17   18 ar
  32   17   39 1
  33   18   19 ar
  34   18   40 1
  35   19   20 1
  36   19   21 ar
  37   22   27 ar
  38   22   23 ar
  39   23   24 ar
  40   23   41 1
  41   24   25 ar
  42   24   42 1
  43   25   26 ar
  44   25   43 1
  45   26   27 ar
  46   26   44 1
  47   27   28 ar

#	End of record

