#	Name: ASD02039108
#	Creating user name:	WinNT
#	Creation time:	15. 06. 2019 20:17

#	Modifying user name:	WinNT
#	Modification time:	15. 06. 2019 20:17

#	Program:	/corina/corina34_cracker 3.40 0067  02.08.2006

@<TRIPOS>MOLECULE
ASD02039108
  42   43    0    0    0
SMALL
NO_CHARGES


@<TRIPOS>ATOM
   1 N1            -0.0169     1.3968     0.0097 N.am    
   2 N2             0.0021    -0.0041     0.0020 N.am    
   3 C3            -1.1558    -0.6938     0.0094 C.2     
   4 C4            -1.1354    -2.2006     0.0011 C.3     
   5 C5            -2.5708    -2.7302     0.0119 C.3     
   6 O6            -2.2142    -0.1017     0.0227 O.2     
   7 C7            -2.5503    -4.2370     0.0037 C.ar    
   8 C8            -2.5295    -4.9335     1.1979 C.ar    
   9 C9            -2.5108    -6.3148     1.1930 C.ar    
  10 C10           -2.5128    -7.0032    -0.0116 C.ar    
  11 C11           -2.5337    -6.3020    -1.2085 C.ar    
  12 C12           -2.5581    -4.9207    -1.1981 C.ar    
  13 O13           -2.4939    -8.3620    -0.0190 O.3     
  14 C14            1.1410     2.0865     0.0024 C.2     
  15 S15            1.1178     3.7983     0.0118 S.2     
  16 N16            2.3171     1.4286    -0.0124 N.am    
  17 C17            3.5758     2.1783    -0.0204 C.3     
  18 C18            4.7343     1.2147    -0.0366 C.ar    
  19 C19            5.2540     0.7794    -1.2415 C.ar    
  20 C20            6.3176    -0.1046    -1.2569 C.ar    
  21 C21            6.8613    -0.5532    -0.0648 C.ar    
  22 C22            6.3402    -0.1167     1.1396 C.ar    
  23 C23            5.2805     0.7710     1.1531 C.ar    
  24 Cl24           8.1960    -1.6632    -0.0824 Cl      
  25 Cl25           6.9701    -0.6520    -2.7695 Cl      
  26 H26           -0.8635     1.8703     0.0163 H       
  27 H27            0.8486    -0.4776    -0.0086 H       
  28 H28           -0.6252    -2.5521    -0.8957 H       
  29 H29           -0.6082    -2.5617     0.8841 H       
  30 H30           -3.0810    -2.3787     0.9087 H       
  31 H31           -3.0980    -2.3691    -0.8711 H       
  32 H32           -2.5276    -4.3972     2.1353 H       
  33 H33           -2.4942    -6.8585     2.1260 H       
  34 H34           -2.5353    -6.8355    -2.1475 H       
  35 H35           -2.5792    -4.3745    -2.1295 H       
  36 H36           -3.3717    -8.7676    -0.0127 H       
  37 H37            2.3303     0.4587    -0.0177 H       
  38 H38            3.6165     2.8104    -0.9074 H       
  39 H39            3.6335     2.8008     0.8724 H       
  40 H40            4.8292     1.1293    -2.1707 H       
  41 H41            6.7638    -0.4661     2.0696 H       
  42 H42            4.8764     1.1149     2.0938 H       
@<TRIPOS>BOND
   1    1    2 1
   2    1   14 am
   3    1   26 1
   4    2    3 am
   5    2   27 1
   6    3    4 1
   7    3    6 2
   8    4    5 1
   9    4   28 1
  10    4   29 1
  11    5    7 1
  12    5   30 1
  13    5   31 1
  14    7    8 ar
  15    7   12 ar
  16    8    9 ar
  17    8   32 1
  18    9   10 ar
  19    9   33 1
  20   10   11 ar
  21   10   13 1
  22   11   12 ar
  23   11   34 1
  24   12   35 1
  25   13   36 1
  26   14   15 2
  27   14   16 am
  28   16   17 1
  29   16   37 1
  30   17   18 1
  31   17   38 1
  32   17   39 1
  33   18   19 ar
  34   18   23 ar
  35   19   20 ar
  36   19   40 1
  37   20   21 ar
  38   20   25 1
  39   21   22 ar
  40   21   24 1
  41   22   23 ar
  42   22   41 1
  43   23   42 1

#	End of record

