#	Name: ASD05940059
#	Creating user name:	WinNT
#	Creation time:	15. 06. 2019 21:04

#	Modifying user name:	WinNT
#	Modification time:	15. 06. 2019 21:04

#	Program:	/corina/corina34_cracker 3.40 0067  02.08.2006

@<TRIPOS>MOLECULE
ASD05940059
  78   81    0    0    0
SMALL
NO_CHARGES


@<TRIPOS>ATOM
   1 N1             0.1302     0.7808     2.8111 N.ar    
   2 C2             0.1375    -0.4328     2.2860 C.ar    
   3 N3             1.2616    -1.0681     1.9963 N.ar    
   4 C4             2.4413    -0.4977     2.2277 C.ar    
   5 C5             2.4733     0.7829     2.7774 C.ar    
   6 C6             1.2713     1.4198     3.0704 C.ar    
   7 N7             3.7087     1.4067     3.0206 N.am    
   8 N8             1.2605     2.6939     3.6218 N.pl3   
   9 O9            -1.0450    -1.0461     2.0366 O.3     
  10 C10           -2.2329    -0.3231     2.3655 C.3     
  11 C11           -3.4585    -1.1697     2.0159 C.3     
  12 C12           -4.7303    -0.3956     2.3680 C.3     
  13 C13           -5.9559    -1.2421     2.0184 C.3     
  14 N14            3.6201    -1.1618     1.9348 N.3     
  15 C15            4.6632    -0.2490     1.4570 C.3     
  16 C16            4.8067     0.9175     2.4000 C.2     
  17 O17            5.8959     1.4125     2.6011 O.2     
  18 C18            3.3879    -2.2463     0.9715 C.3     
  19 C19            4.7317    -2.7915     0.4836 C.3     
  20 C20            4.4899    -3.9210    -0.5196 C.3     
  21 O21            5.8995    -5.8647     0.7120 O.2     
  22 C22            6.3706    -5.4585    -0.3292 C.2     
  23 N23            5.7765    -4.4430    -0.9868 N.am    
  24 C24            7.6201    -6.0892    -0.8877 C.3     
  25 C25            6.4175    -3.8612    -2.1687 C.3     
  26 C26            7.2229    -2.6546    -1.7606 C.ar    
  27 C27            8.5446    -2.8013    -1.3831 C.ar    
  28 C28            9.2835    -1.6946    -1.0087 C.ar    
  29 C29            8.7007    -0.4411    -1.0122 C.ar    
  30 C30            7.3792    -0.2943    -1.3905 C.ar    
  31 C31            6.6417    -1.4004    -1.7691 C.ar    
  32 N32            7.9943    -7.2468    -0.0644 N.3     
  33 C33            9.2614    -7.8323    -0.5239 C.3     
  34 C34            9.6557    -8.9825     0.4057 C.3     
  35 N35            8.5859    -9.9901     0.4149 N.3     
  36 C36            7.3188    -9.4046     0.8744 C.3     
  37 C37            6.9246    -8.2544    -0.0552 C.3     
  38 C38            8.9602   -11.1477     1.2382 C.3     
  39 H39            3.7726     2.1681     3.6182 H       
  40 H40            2.0966     3.1494     3.8067 H       
  41 H41            0.4167     3.1285     3.8221 H       
  42 H42           -2.2383    -0.0992     3.4323 H       
  43 H43           -2.2605     0.6075     1.7988 H       
  44 H44           -3.4530    -1.3936     0.9492 H       
  45 H45           -3.4309    -2.1003     2.5827 H       
  46 H46           -4.7358    -0.1716     3.4348 H       
  47 H47           -4.7579     0.5351     1.8013 H       
  48 H48           -5.9283    -2.1728     2.5852 H       
  49 H49           -6.8620    -0.6906     2.2693 H       
  50 H50           -5.9505    -1.4661     0.9517 H       
  51 H51            5.6112    -0.7836     1.3971 H       
  52 H52            4.3954     0.1185     0.4663 H       
  53 H53            2.8248    -3.0457     1.4531 H       
  54 H54            2.8214    -1.8633     0.1227 H       
  55 H55            5.2948    -1.9921     0.0020 H       
  56 H56            5.2981    -3.1745     1.3325 H       
  57 H57            3.9267    -4.7204    -0.0380 H       
  58 H58            3.9234    -3.5380    -1.3684 H       
  59 H59            7.4360    -6.4157    -1.9113 H       
  60 H60            8.4302    -5.3601    -0.8790 H       
  61 H61            7.0759    -4.5999    -2.6257 H       
  62 H62            5.6534    -3.5622    -2.8862 H       
  63 H63            8.9999    -3.7807    -1.3804 H       
  64 H64           10.3159    -1.8093    -0.7131 H       
  65 H65            9.2777     0.4235    -0.7190 H       
  66 H66            6.9238     0.6850    -1.3929 H       
  67 H67            5.6093    -1.2857    -2.0646 H       
  68 H68            9.1403    -8.2104    -1.5391 H       
  69 H69           10.0405    -7.0701    -0.5099 H       
  70 H70           10.5803    -9.4370     0.0499 H       
  71 H71            9.8033    -8.5997     1.4155 H       
  72 H72            6.5398   -10.1668     0.8604 H       
  73 H73            7.4399    -9.0265     1.8896 H       
  74 H74            6.0000    -7.7999     0.3006 H       
  75 H75            6.7770    -8.6373    -1.0650 H       
  76 H76            9.1420   -10.8216     2.2623 H       
  77 H77            8.1510   -11.8779     1.2277 H       
  78 H78            9.8652   -11.6025     0.8356 H       
@<TRIPOS>BOND
   1    1    2 ar
   2    1    6 ar
   3    2    3 ar
   4    2    9 1
   5    3    4 ar
   6    4    5 ar
   7    4   14 1
   8    5    6 ar
   9    5    7 1
  10    6    8 1
  11    7   16 am
  12    7   39 1
  13    8   40 1
  14    8   41 1
  15    9   10 1
  16   10   11 1
  17   10   42 1
  18   10   43 1
  19   11   12 1
  20   11   44 1
  21   11   45 1
  22   12   13 1
  23   12   46 1
  24   12   47 1
  25   13   48 1
  26   13   49 1
  27   13   50 1
  28   14   15 1
  29   14   18 1
  30   15   16 1
  31   15   51 1
  32   15   52 1
  33   16   17 2
  34   18   19 1
  35   18   53 1
  36   18   54 1
  37   19   20 1
  38   19   55 1
  39   19   56 1
  40   20   23 1
  41   20   57 1
  42   20   58 1
  43   21   22 2
  44   22   23 am
  45   22   24 1
  46   23   25 1
  47   24   32 1
  48   24   59 1
  49   24   60 1
  50   25   26 1
  51   25   61 1
  52   25   62 1
  53   26   27 ar
  54   26   31 ar
  55   27   28 ar
  56   27   63 1
  57   28   29 ar
  58   28   64 1
  59   29   30 ar
  60   29   65 1
  61   30   31 ar
  62   30   66 1
  63   31   67 1
  64   32   33 1
  65   32   37 1
  66   33   34 1
  67   33   68 1
  68   33   69 1
  69   34   35 1
  70   34   70 1
  71   34   71 1
  72   35   36 1
  73   35   38 1
  74   36   37 1
  75   36   72 1
  76   36   73 1
  77   37   74 1
  78   37   75 1
  79   38   76 1
  80   38   77 1
  81   38   78 1

#	End of record

