#	Name: ASD07480001
#	Creating user name:	WinNT
#	Creation time:	15. 06. 2019 21:11

#	Modifying user name:	WinNT
#	Modification time:	15. 06. 2019 21:11

#	Program:	/corina/corina34_cracker 3.40 0067  02.08.2006

@<TRIPOS>MOLECULE
ASD07480001
  43   46    0    0    0
SMALL
NO_CHARGES


@<TRIPOS>ATOM
   1 C1            -0.0170     1.4041     0.0098 C.2     
   2 C2             0.0021    -0.0041     0.0020 C.2     
   3 N3             1.1378    -0.6601    -0.0124 N.2     
   4 N4             2.3558     0.0266    -0.0204 N.pl3   
   5 C5             2.3710     1.4006    -0.0132 C.2     
   6 C6             1.1495     2.1021     0.0024 C.2     
   7 C7             3.6545    -0.3880    -0.0351 C.2     
   8 C8             4.4315     0.7291    -0.0365 C.2     
   9 N9             3.6350     1.7992    -0.0231 N.2     
  10 N10           -1.1986    -0.7081     0.0102 N.pl3   
  11 C11           -1.3335    -2.1721     0.0037 C.3     
  12 C12           -2.5455    -0.1093     0.0333 C.3     
  13 C13           -3.4710    -1.1912    -0.5771 C.3     
  14 C14           -2.8429    -2.4930    -0.0093 C.3     
  15 C15           -0.6971    -2.7509     1.2410 C.ar    
  16 C16           -0.2354    -4.0559     1.2360 C.ar    
  17 C17            0.3499    -4.5877     2.3728 C.ar    
  18 C18            0.4734    -3.8156     3.5118 C.ar    
  19 C19            0.0115    -2.5101     3.5168 C.ar    
  20 C20           -0.5692    -1.9770     2.3789 C.ar    
  21 F21           -0.3561    -4.8109     0.1222 F       
  22 F22            0.1319    -1.7553     4.6308 F       
  23 N23            4.1043    -1.7141    -0.0461 N.am    
  24 C24            5.4260    -1.9773    -0.0602 C.2     
  25 O25            6.2261    -1.0653    -0.0634 O.2     
  26 C26            5.9100    -3.4044    -0.0720 C.3     
  27 H27           -0.9601     1.9304     0.0171 H       
  28 H28            1.1399     3.1820     0.0079 H       
  29 H29            5.5113     0.7464    -0.0468 H       
  30 H30           -0.8568    -2.5843    -0.8857 H       
  31 H31           -2.8448     0.1119     1.0578 H       
  32 H32           -2.5687     0.7960    -0.5734 H       
  33 H33           -4.4968    -1.0694    -0.2293 H       
  34 H34           -3.4249    -1.1756    -1.6661 H       
  35 H35           -3.0520    -3.3393    -0.6636 H       
  36 H36           -3.2040    -2.6866     1.0008 H       
  37 H37            0.7094    -5.6060     2.3691 H       
  38 H38            0.9298    -4.2303     4.3984 H       
  39 H39           -0.9291    -0.9588     2.3827 H       
  40 H40            3.4645    -2.4432    -0.0435 H       
  41 H41            6.0167    -3.7433    -1.1025 H       
  42 H42            6.8745    -3.4651     0.4322 H       
  43 H43            5.1889    -4.0369     0.4456 H       
@<TRIPOS>BOND
   1    1    2 1
   2    1    6 2
   3    1   27 1
   4    2    3 2
   5    2   10 1
   6    3    4 1
   7    4    5 1
   8    4    7 1
   9    5    6 1
  10    5    9 2
  11    6   28 1
  12    7    8 2
  13    7   23 1
  14    8    9 1
  15    8   29 1
  16   10   11 1
  17   10   12 1
  18   11   15 1
  19   11   14 1
  20   11   30 1
  21   12   13 1
  22   12   31 1
  23   12   32 1
  24   13   14 1
  25   13   33 1
  26   13   34 1
  27   14   35 1
  28   14   36 1
  29   15   16 ar
  30   15   20 ar
  31   16   17 ar
  32   16   21 1
  33   17   18 ar
  34   17   37 1
  35   18   19 ar
  36   18   38 1
  37   19   20 ar
  38   19   22 1
  39   20   39 1
  40   23   24 am
  41   23   40 1
  42   24   25 2
  43   24   26 1
  44   26   41 1
  45   26   42 1
  46   26   43 1

#	End of record

