#	Name: ASD07300975
#	Creating user name:	WinNT
#	Creation time:	15. 06. 2019 21:10

#	Modifying user name:	WinNT
#	Modification time:	15. 06. 2019 21:10

#	Program:	/corina/corina34_cracker 3.40 0067  02.08.2006

@<TRIPOS>MOLECULE
ASD07300975
  39   40    0    0    0
SMALL
NO_CHARGES


@<TRIPOS>ATOM
   1 C1            -0.0131     1.4563     0.1339 C.2     
   2 C2             0.0020    -0.0040     0.0004 C.2     
   3 C3             1.2338    -0.6194    -0.1379 C.2     
   4 C4             2.3763     0.1978    -0.1401 C.2     
   5 N5             2.2564     1.5297    -0.0108 N.am    
   6 N6             1.1239     2.1170     0.1178 N.2     
   7 C7            -1.2934     2.1787     0.2789 C.2     
   8 O8            -2.3413     1.5625     0.2880 O.2     
   9 N9            -1.2997     3.5209     0.4011 N.am    
  10 C10            3.4177     2.3097    -0.0173 C.ar    
  11 C11            4.3709     2.1311    -1.0122 C.ar    
  12 C12            5.5160     2.9026    -1.0156 C.ar    
  13 C13            5.7149     3.8522    -0.0297 C.ar    
  14 C14            4.7685     4.0322     0.9622 C.ar    
  15 C15            3.6177     3.2684     0.9677 C.ar    
  16 C16            6.5504     2.7096    -2.0943 C.3     
  17 F17            6.2611     3.5511    -3.1738 F       
  18 F18            7.8167     3.0203    -1.5871 F       
  19 F19            6.5338     1.3781    -2.5234 F       
  20 O20            3.4824    -0.3041    -0.2597 O.2     
  21 C21           -2.5694     4.2373     0.5449 C.3     
  22 O22           -1.1450    -0.7226     0.0123 O.3     
  23 C23           -1.0242    -2.1399    -0.1244 C.3     
  24 O24           -0.0791     4.2386     0.3905 O.3     
  25 C25            0.3415     4.6509    -0.9114 C.3     
  26 H26            1.3140    -1.6916    -0.2402 H       
  27 H27            4.2165     1.3894    -1.7819 H       
  28 H28            6.6116     4.4541    -0.0345 H       
  29 H29            4.9272     4.7740     1.7309 H       
  30 H30            2.8767     3.4128     1.7399 H       
  31 H31           -2.8210     4.3223     1.6021 H       
  32 H32           -2.4755     5.2335     0.1126 H       
  33 H33           -3.3565     3.6893     0.0271 H       
  34 H34           -0.5421    -2.3736    -1.0737 H       
  35 H35           -0.4231    -2.5340     0.6951 H       
  36 H36           -2.0151    -2.5932    -0.0989 H       
  37 H37            0.4786     3.7737    -1.5438 H       
  38 H38           -0.4169     5.2997    -1.3497 H       
  39 H39            1.2834     5.1939    -0.8340 H       
@<TRIPOS>BOND
   1    1    2 1
   2    1    6 2
   3    1    7 1
   4    2    3 2
   5    2   22 1
   6    3    4 1
   7    3   26 1
   8    4    5 am
   9    4   20 2
  10    5    6 1
  11    5   10 1
  12    7    8 2
  13    7    9 am
  14    9   21 1
  15    9   24 1
  16   10   11 ar
  17   10   15 ar
  18   11   12 ar
  19   11   27 1
  20   12   13 ar
  21   12   16 1
  22   13   14 ar
  23   13   28 1
  24   14   15 ar
  25   14   29 1
  26   15   30 1
  27   16   17 1
  28   16   18 1
  29   16   19 1
  30   21   31 1
  31   21   32 1
  32   21   33 1
  33   22   23 1
  34   23   34 1
  35   23   35 1
  36   23   36 1
  37   24   25 1
  38   25   37 1
  39   25   38 1
  40   25   39 1

#	End of record

