#	Name: ASD02198443
#	Creating user name:	WinNT
#	Creation time:	15. 06. 2019 20:19

#	Modifying user name:	WinNT
#	Modification time:	15. 06. 2019 20:19

#	Program:	/corina/corina34_cracker 3.40 0067  02.08.2006

@<TRIPOS>MOLECULE
ASD02198443
  42   45    0    0    0
SMALL
NO_CHARGES


@<TRIPOS>ATOM
   1 C1             0.1688     1.9686     0.0239 C.ar    
   2 S2             0.0459     0.2139    -0.0788 S.o2    
   3 N3            -0.1509    -0.3549     1.4640 N.am    
   4 C4            -1.2530     0.0446     2.2189 C.ar    
   5 C5            -1.1258     0.2491     3.6106 C.ar    
   6 C6            -2.2617     0.6553     4.3525 C.ar    
   7 C7            -3.4892     0.8467     3.6982 C.ar    
   8 C8            -3.5824     0.6415     2.3550 C.ar    
   9 C9            -2.4733     0.2483     1.6121 C.ar    
  10 N10            0.0430     0.0652     4.2300 N.ar    
  11 C11            0.1673     0.2531     5.5214 C.ar    
  12 C12           -0.9095     0.6522     6.3106 C.ar    
  13 C13           -2.1328     0.8587     5.7399 C.ar    
  14 O14           -1.1662    -0.0639    -0.7665 O.2     
  15 O15            1.3139    -0.2521    -0.5195 O.2     
  16 C16            1.4060     2.5769     0.1831 C.ar    
  17 C17            1.4577     3.9580     0.2593 C.ar    
  18 C18            0.2768     4.6841     0.1744 C.ar    
  19 N19           -0.8840     4.0678     0.0231 N.ar    
  20 C20           -0.9644     2.7536    -0.0589 C.ar    
  21 O21            0.3140     6.0384     0.2477 O.3     
  22 C22           -0.8465     6.7197     0.0585 C.ar    
  23 C23           -1.8028     6.7559     1.0631 C.ar    
  24 C24           -1.0747     7.3850    -1.1375 C.ar    
  25 C25           -2.2550     8.0772    -1.3271 C.ar    
  26 C26           -3.2085     8.1077    -0.3262 C.ar    
  27 C27           -2.9815     7.4495     0.8684 C.ar    
  28 H28            0.5005    -0.9659     1.8425 H       
  29 H29           -4.3586     1.1560     4.2595 H       
  30 H30           -4.5298     0.7903     1.8584 H       
  31 H31           -2.5723     0.0922     0.5480 H       
  32 H32            1.1292     0.0940     5.9859 H       
  33 H33           -0.7766     0.7984     7.3723 H       
  34 H34           -2.9782     1.1685     6.3363 H       
  35 H35            2.3079     1.9861     0.2465 H       
  36 H36            2.4037     4.4642     0.3835 H       
  37 H37           -1.9297     2.2851    -0.1823 H       
  38 H38           -1.6260     6.2419     1.9964 H       
  39 H39           -0.3300     7.3621    -1.9194 H       
  40 H40           -2.4331     8.5953    -2.2579 H       
  41 H41           -4.1304     8.6498    -0.4763 H       
  42 H42           -3.7279     7.4746     1.6486 H       
@<TRIPOS>BOND
   1    1    2 1
   2    1   16 ar
   3    1   20 ar
   4    2    3 am
   5    2   14 2
   6    2   15 2
   7    3    4 1
   8    3   28 1
   9    4    5 ar
  10    4    9 ar
  11    5    6 ar
  12    5   10 ar
  13    6    7 ar
  14    6   13 ar
  15    7    8 ar
  16    7   29 1
  17    8    9 ar
  18    8   30 1
  19    9   31 1
  20   10   11 ar
  21   11   12 ar
  22   11   32 1
  23   12   13 ar
  24   12   33 1
  25   13   34 1
  26   16   17 ar
  27   16   35 1
  28   17   18 ar
  29   17   36 1
  30   18   19 ar
  31   18   21 1
  32   19   20 ar
  33   20   37 1
  34   21   22 1
  35   22   23 ar
  36   22   24 ar
  37   23   27 ar
  38   23   38 1
  39   24   25 ar
  40   24   39 1
  41   25   26 ar
  42   25   40 1
  43   26   27 ar
  44   26   41 1
  45   27   42 1

#	End of record

