#	Name: ASD04882065
#	Creating user name:	WinNT
#	Creation time:	15. 06. 2019 20:54

#	Modifying user name:	WinNT
#	Modification time:	15. 06. 2019 20:54

#	Program:	/corina/corina34_cracker 3.40 0067  02.08.2006

@<TRIPOS>MOLECULE
ASD04882065
  70   73    0    0    0
SMALL
NO_CHARGES


@<TRIPOS>ATOM
   1 N1            -0.0169     1.3967     0.0097 N.am    
   2 C2             0.1191     0.0032    -0.0379 C.ar    
   3 C3            -1.0128    -0.8130     0.0391 C.ar    
   4 C4            -0.8793    -2.1960    -0.0081 C.ar    
   5 C5             0.3680    -2.7667    -0.1312 C.ar    
   6 C6             1.5041    -1.9563    -0.2091 C.ar    
   7 C7             1.3722    -0.5654    -0.1668 C.ar    
   8 N8            -2.2760    -0.2403     0.1636 N.pl3   
   9 C9            -3.4631    -1.0949     0.2444 C.3     
  10 N10           -5.9028    -1.0785     0.4565 N.3     
  11 C11           -4.7124    -0.2215     0.3755 C.3     
  12 C12            0.9154     2.1847    -0.5616 C.2     
  13 O13            1.9114     1.6892    -1.0553 O.2     
  14 C14            0.7297     3.6389    -0.5884 C.2     
  15 C15            2.8401    -2.5679    -0.3404 C.2     
  16 N16            2.9659    -3.9091    -0.3853 N.am    
  17 O17            3.8279    -1.8621    -0.4082 O.2     
  18 C18           -7.1242    -0.2723     0.5835 C.3     
  19 C19           -8.3216    -1.1838     0.6637 C.ar    
  20 C20            1.5914     4.5481    -1.1322 C.2     
  21 C21            4.2926    -4.5165    -0.5157 C.3     
  22 C22            4.1556    -6.0401    -0.5425 C.3     
  23 C23            5.5412    -6.6744    -0.6786 C.3     
  24 N24            5.4101    -8.1333    -0.7042 N.am    
  25 C25            5.2468    -8.8606    -1.8228 C.2     
  26 C26            5.4463    -8.9890     0.4875 C.3     
  27 C27            4.8459   -10.3410     0.0425 C.3     
  28 C28            5.1374   -10.3293    -1.4771 C.3     
  29 O29            5.1942    -8.4055    -2.9458 O.2     
  30 C30           -8.7673    -1.6329     1.8927 C.ar    
  31 C31           -8.9777    -1.5662    -0.4914 C.ar    
  32 C32          -10.0761    -2.4023    -0.4179 C.ar    
  33 C33          -10.5181    -2.8563     0.8107 C.ar    
  34 C34           -9.8657    -2.4690     1.9662 C.ar    
  35 C35            1.0193     5.8145    -0.9349 C.2     
  36 C36           -0.1517     5.6255    -0.2875 C.2     
  37 O37           -0.3252     4.3129    -0.0852 O.3     
  38 H38           -0.7841     1.7944     0.4504 H       
  39 H39           -1.7557    -2.8243     0.0524 H       
  40 H40            0.4684    -3.8414    -0.1671 H       
  41 H41            2.2482     0.0633    -0.2271 H       
  42 H42           -2.3698     0.7246     0.1969 H       
  43 H43           -3.5366    -1.7009    -0.6587 H       
  44 H44           -3.3828    -1.7471     1.1140 H       
  45 H45           -5.9584    -1.6962    -0.3393 H       
  46 H46           -4.6389     0.3845     1.2786 H       
  47 H47           -4.7927     0.4307    -0.4941 H       
  48 H48            2.1779    -4.4721    -0.3313 H       
  49 H49           -7.0674     0.3334     1.4880 H       
  50 H50           -7.2212     0.3795    -0.2847 H       
  51 H51            2.5312     4.3341    -1.6195 H       
  52 H52            4.7582    -4.1772    -1.4411 H       
  53 H53            4.9118    -4.2222     0.3317 H       
  54 H54            3.6901    -6.3793     0.3829 H       
  55 H55            3.5364    -6.3344    -1.3898 H       
  56 H56            6.0068    -6.3352    -1.6040 H       
  57 H57            6.1605    -6.3801     0.1687 H       
  58 H58            6.4744    -9.1250     0.8231 H       
  59 H59            4.8434    -8.5525     1.2838 H       
  60 H60            5.3548   -11.1730     0.5294 H       
  61 H61            3.7738   -10.3744     0.2363 H       
  62 H62            4.3168   -10.7906    -2.0265 H       
  63 H63            6.0757   -10.8419    -1.6895 H       
  64 H64           -8.2572    -1.3308     2.7955 H       
  65 H65           -8.6323    -1.2115    -1.4513 H       
  66 H66          -10.5891    -2.7006    -1.3202 H       
  67 H67          -11.3764    -3.5093     0.8682 H       
  68 H68          -10.2110    -2.8237     2.9261 H       
  69 H69            1.4365     6.7620    -1.2427 H       
  70 H70           -0.8367     6.4042     0.0137 H       
@<TRIPOS>BOND
   1    1    2 1
   2    1   12 am
   3    1   38 1
   4    2    3 ar
   5    2    7 ar
   6    3    4 ar
   7    3    8 1
   8    4    5 ar
   9    4   39 1
  10    5    6 ar
  11    5   40 1
  12    6    7 ar
  13    6   15 1
  14    7   41 1
  15    8    9 1
  16    8   42 1
  17    9   11 1
  18    9   43 1
  19    9   44 1
  20   10   11 1
  21   10   18 1
  22   10   45 1
  23   11   46 1
  24   11   47 1
  25   12   13 2
  26   12   14 1
  27   14   20 2
  28   14   37 1
  29   15   16 am
  30   15   17 2
  31   16   21 1
  32   16   48 1
  33   18   19 1
  34   18   49 1
  35   18   50 1
  36   19   30 ar
  37   19   31 ar
  38   20   35 1
  39   20   51 1
  40   21   22 1
  41   21   52 1
  42   21   53 1
  43   22   23 1
  44   22   54 1
  45   22   55 1
  46   23   24 1
  47   23   56 1
  48   23   57 1
  49   24   25 am
  50   24   26 1
  51   25   29 2
  52   25   28 1
  53   26   27 1
  54   26   58 1
  55   26   59 1
  56   27   28 1
  57   27   60 1
  58   27   61 1
  59   28   62 1
  60   28   63 1
  61   30   34 ar
  62   30   64 1
  63   31   32 ar
  64   31   65 1
  65   32   33 ar
  66   32   66 1
  67   33   34 ar
  68   33   67 1
  69   34   68 1
  70   35   36 2
  71   35   69 1
  72   36   37 1
  73   36   70 1

#	End of record

