#	Name: ASD01900537
#	Creating user name:	WinNT
#	Creation time:	15. 06. 2019 19:52

#	Modifying user name:	WinNT
#	Modification time:	15. 06. 2019 19:52

#	Program:	/corina/corina34_cracker 3.40 0067  02.08.2006

@<TRIPOS>MOLECULE
ASD01900537
  30   32    0    0    0
SMALL
NO_CHARGES


@<TRIPOS>ATOM
   1 O1             4.4660    -2.6627    -2.0307 O.3     
   2 N2             3.1557    -2.8572    -1.5378 N.2     
   3 C3             2.8536    -1.8984    -0.7066 C.2     
   4 C4             4.0194    -1.0047    -0.6299 C.ar    
   5 C5             4.9907    -1.5456    -1.4851 C.ar    
   6 C6             6.2189    -0.9058    -1.6189 C.ar    
   7 C7             6.4719     0.2522    -0.9119 C.ar    
   8 C8             5.5109     0.7861    -0.0660 C.ar    
   9 C9             4.2896     0.1669     0.0783 C.ar    
  10 N10            1.6550    -1.7489    -0.0224 N.pl3   
  11 F11            7.1625    -1.4175    -2.4393 F       
  12 C12            0.6714    -2.7413    -0.1085 C.ar    
  13 C13            1.0363    -4.0644    -0.3214 C.ar    
  14 C14            0.0647    -5.0431    -0.4063 C.ar    
  15 C15           -1.2755    -4.7037    -0.2786 C.ar    
  16 C16           -1.6396    -3.3829    -0.0665 C.ar    
  17 C17           -0.6689    -2.4042     0.0247 C.ar    
  18 O18           -2.2317    -5.6674    -0.3622 O.3     
  19 C19           -3.5902    -5.2473    -0.2218 C.3     
  20 Cl20           0.5198    -6.6971    -0.6730 Cl      
  21 H21            7.4263     0.7466    -1.0179 H       
  22 H22            5.7217     1.6924     0.4822 H       
  23 H23            3.5437     0.5862     0.7374 H       
  24 H24            1.4989    -0.9568     0.5152 H       
  25 H25            2.0788    -4.3281    -0.4210 H       
  26 H26           -2.6824    -3.1197     0.0323 H       
  27 H27           -0.9528    -1.3762     0.1947 H       
  28 H28           -4.2487    -6.1116    -0.3084 H       
  29 H29           -3.7277    -4.7822     0.7544 H       
  30 H30           -3.8307    -4.5275    -1.0042 H       
@<TRIPOS>BOND
   1    1    2 1
   2    1    5 1
   3    2    3 2
   4    3    4 1
   5    3   10 1
   6    4    5 ar
   7    4    9 ar
   8    5    6 ar
   9    6    7 ar
  10    6   11 1
  11    7    8 ar
  12    7   21 1
  13    8    9 ar
  14    8   22 1
  15    9   23 1
  16   10   12 1
  17   10   24 1
  18   12   13 ar
  19   12   17 ar
  20   13   14 ar
  21   13   25 1
  22   14   15 ar
  23   14   20 1
  24   15   16 ar
  25   15   18 1
  26   16   17 ar
  27   16   26 1
  28   17   27 1
  29   18   19 1
  30   19   28 1
  31   19   29 1
  32   19   30 1

#	End of record

