#	Name: ASD01885675
#	Creating user name:	WinNT
#	Creation time:	15. 06. 2019 19:50

#	Modifying user name:	WinNT
#	Modification time:	15. 06. 2019 19:50

#	Program:	/corina/corina34_cracker 3.40 0067  02.08.2006

@<TRIPOS>MOLECULE
ASD01885675
  48   51    0    0    0
SMALL
NO_CHARGES


@<TRIPOS>ATOM
   1 C1            -0.0160     1.3292     0.0094 C.ar    
   2 C2             1.2004     2.0573     0.0016 C.ar    
   3 C3             2.4280     1.3473    -0.0134 C.ar    
   4 C4             2.3760    -0.0407    -0.0200 C.ar    
   5 C5             1.1336    -0.6835    -0.0116 C.ar    
   6 N6             0.0021    -0.0041     0.0020 N.ar    
   7 C7            -1.2256     3.3960     0.0258 C.ar    
   8 C8            -0.0271     4.1071     0.0226 C.ar    
   9 C9             1.1708     3.4578     0.0086 C.ar    
  10 C10            3.7232     2.0625    -0.0225 C.ar    
  11 C11            1.0866    -2.1656    -0.0196 C.2     
  12 C12           -2.5327     4.1458     0.0355 C.3     
  13 C13           -1.2342     2.0356     0.0189 C.ar    
  14 N14           -0.1014    -2.8022    -0.0131 N.am    
  15 O15            2.1190    -2.8061    -0.0321 O.2     
  16 N16           -2.9502     4.3817     1.4198 N.am    
  17 C17           -2.5964     5.4749     2.1069 C.2     
  18 C18           -3.1920     5.4041     3.4961 C.3     
  19 C19           -3.9594     4.0663     3.4927 C.3     
  20 C20           -3.7214     3.5245     2.1000 C.2     
  21 C21            4.5719     1.9592    -1.1253 C.ar    
  22 C22            5.7774     2.6272    -1.1306 C.ar    
  23 C23            6.1497     3.4032    -0.0401 C.ar    
  24 C24            5.3096     3.5099     1.0602 C.ar    
  25 C25            4.0978     2.8484     1.0716 C.ar    
  26 O26            7.3390     4.0591    -0.0502 O.3     
  27 O27           -4.1545     2.4768     1.6707 O.2     
  28 O28           -1.9077     6.3782     1.6833 O.2     
  29 F29            3.2776     2.9565     2.1398 F       
  30 C30            7.6594     4.8392     1.1034 C.3     
  31 H31            3.2879    -0.6193    -0.0318 H       
  32 H32           -0.0481     5.1869     0.0271 H       
  33 H33            2.0928     4.0201     0.0031 H       
  34 H34           -2.4074     5.1012    -0.4740 H       
  35 H35           -3.2930     3.5572    -0.4780 H       
  36 H36           -2.1717     1.4994     0.0203 H       
  37 H37           -0.9256    -2.2909    -0.0031 H       
  38 H38           -0.1321    -3.7717    -0.0184 H       
  39 H39           -2.4054     5.3933     4.2506 H       
  40 H40           -3.8744     6.2374     3.6638 H       
  41 H41           -3.5545     3.3899     4.2455 H       
  42 H42           -5.0235     4.2340     3.6587 H       
  43 H43            4.2844     1.3561    -1.9739 H       
  44 H44            6.4343     2.5468    -1.9842 H       
  45 H45            5.6008     4.1172     1.9045 H       
  46 H46            6.9012     5.6098     1.2430 H       
  47 H47            7.6880     4.1943     1.9817 H       
  48 H48            8.6334     5.3086     0.9655 H       
@<TRIPOS>BOND
   1    1    6 ar
   2    1    2 ar
   3    1   13 ar
   4    2    3 ar
   5    2    9 ar
   6    3   10 1
   7    3    4 ar
   8    4    5 ar
   9    4   31 1
  10    5   11 1
  11    5    6 ar
  12    7   12 1
  13    7   13 ar
  14    7    8 ar
  15    8    9 ar
  16    8   32 1
  17    9   33 1
  18   10   21 ar
  19   10   25 ar
  20   11   14 am
  21   11   15 2
  22   12   16 1
  23   12   34 1
  24   12   35 1
  25   13   36 1
  26   14   37 1
  27   14   38 1
  28   16   17 am
  29   16   20 am
  30   17   18 1
  31   17   28 2
  32   18   19 1
  33   18   39 1
  34   18   40 1
  35   19   20 1
  36   19   41 1
  37   19   42 1
  38   20   27 2
  39   21   22 ar
  40   21   43 1
  41   22   23 ar
  42   22   44 1
  43   23   26 1
  44   23   24 ar
  45   24   25 ar
  46   24   45 1
  47   25   29 1
  48   26   30 1
  49   30   46 1
  50   30   47 1
  51   30   48 1

#	End of record

