#	Name: ASD01811456
#	Creating user name:	WinNT
#	Creation time:	15. 06. 2019 19:26

#	Modifying user name:	WinNT
#	Modification time:	15. 06. 2019 19:26

#	Program:	/corina/corina34_cracker 3.40 0067  02.08.2006

@<TRIPOS>MOLECULE
ASD01811456
  70   74    0    0    0
SMALL
NO_CHARGES


@<TRIPOS>ATOM
   1 C1            -7.3570     2.2254    -3.9971 C.1     
   2 C2            -6.3760     3.0160    -3.3165 C.ar    
   3 C3            -5.2072     2.4223    -2.8359 C.ar    
   4 C4            -4.2664     3.1899    -2.1812 C.ar    
   5 C5            -4.4791     4.5450    -1.9999 C.ar    
   6 C6            -5.6352     5.1397    -2.4732 C.ar    
   7 C7            -6.5813     4.3853    -3.1356 C.ar    
   8 N8            -8.1352     1.5981    -4.5369 N.1     
   9 N9            -2.4213     7.7924    -0.2279 N.am    
  10 C10           -1.8686     7.3012    -1.4975 C.3     
  11 C11           -2.9423     6.4792    -2.2174 C.3     
  12 C12           -3.4469     5.3770    -1.2833 C.3     
  13 C13           -4.0756     6.0086    -0.0391 C.3     
  14 C14           -3.0147     6.8253     0.7055 C.3     
  15 C15           -2.3796     9.1045     0.0772 C.2     
  16 C16           -3.0220     9.5966     1.3148 C.ar    
  17 C17           -3.9802    10.6109     1.2505 C.ar    
  18 C18           -4.5808    11.0712     2.4051 C.ar    
  19 C19           -4.2393    10.5331     3.6303 C.ar    
  20 C20           -3.2831     9.5189     3.7087 C.ar    
  21 C21           -2.6772     9.0456     2.5470 C.ar    
  22 O22           -1.8138     9.8834    -0.6649 O.2     
  23 C23           -4.3588    11.2043    -0.0820 C.3     
  24 C24           -4.8998    11.0423     4.8855 C.3     
  25 C25           -4.0207    12.1199     5.5233 C.3     
  26 C26           -1.1389     6.7253     7.3378 C.3     
  27 C27           -1.9744     7.7232     6.5748 C.2     
  28 C28           -2.8579     8.5711     7.1497 C.2     
  29 C29           -3.1254     8.6435     8.6330 C.3     
  30 C30           -2.6132     7.3569     9.2919 C.3     
  31 N31           -1.2735     7.0472     8.7703 N.am    
  32 C32           -2.9182     8.9441     5.0221 C.2     
  33 N33           -2.0021     7.9523     5.2340 N.pl3   
  34 N34           -3.4207     9.3010     6.1853 N.2     
  35 C35           -0.1968     7.0569     9.5808 C.2     
  36 O36           -0.3254     7.3239    10.7569 O.2     
  37 C37            1.1671     6.7360     9.0258 C.3     
  38 H38           -5.0402     1.3645    -2.9761 H       
  39 H39           -3.3618     2.7320    -1.8089 H       
  40 H40           -5.7951     6.1979    -2.3280 H       
  41 H41           -7.4811     4.8516    -3.5088 H       
  42 H42           -1.5769     8.1467    -2.1205 H       
  43 H43           -0.9997     6.6737    -1.2994 H       
  44 H44           -3.7723     7.1287    -2.4954 H       
  45 H45           -2.5158     6.0292    -3.1139 H       
  46 H46           -2.6120     4.7426    -0.9858 H       
  47 H47           -4.8949     6.6626    -0.3376 H       
  48 H48           -4.4557     5.2238     0.6148 H       
  49 H49           -2.2392     6.1590     1.0833 H       
  50 H50           -3.4792     7.3568     1.5361 H       
  51 H51           -5.3209    11.8559     2.3500 H       
  52 H52           -1.9402     8.2581     2.6019 H       
  53 H53           -5.1275    10.5884    -0.5488 H       
  54 H54           -4.7421    12.2139     0.0655 H       
  55 H55           -3.4805    11.2397    -0.7267 H       
  56 H56           -5.8727    11.4668     4.6375 H       
  57 H57           -5.0310    10.2183     5.5869 H       
  58 H58           -3.8895    12.9439     4.8219 H       
  59 H59           -4.4985    12.4882     6.4312 H       
  60 H60           -3.0479    11.6954     5.7712 H       
  61 H61           -1.5026     5.7153     7.1487 H       
  62 H62           -0.0949     6.8074     7.0355 H       
  63 H63           -2.6053     9.5027     9.0564 H       
  64 H64           -4.1971     8.7410     8.8064 H       
  65 H65           -2.5603     7.4969    10.3716 H       
  66 H66           -3.2921     6.5354     9.0631 H       
  67 H67           -1.4735     7.4991     4.5587 H       
  68 H68            1.6447     7.6537     8.6823 H       
  69 H69            1.7775     6.2780     9.8040 H       
  70 H70            1.0654     6.0444     8.1895 H       
@<TRIPOS>BOND
   1    1    2 1
   2    1    8 3
   3    2    3 ar
   4    2    7 ar
   5    3    4 ar
   6    3   38 1
   7    4    5 ar
   8    4   39 1
   9    5    6 ar
  10    5   12 1
  11    6    7 ar
  12    6   40 1
  13    7   41 1
  14    9   10 1
  15    9   14 1
  16    9   15 am
  17   10   11 1
  18   10   42 1
  19   10   43 1
  20   11   12 1
  21   11   44 1
  22   11   45 1
  23   12   13 1
  24   12   46 1
  25   13   14 1
  26   13   47 1
  27   13   48 1
  28   14   49 1
  29   14   50 1
  30   15   16 1
  31   15   22 2
  32   16   17 ar
  33   16   21 ar
  34   17   18 ar
  35   17   23 1
  36   18   19 ar
  37   18   51 1
  38   19   20 ar
  39   19   24 1
  40   20   21 ar
  41   20   32 1
  42   21   52 1
  43   23   53 1
  44   23   54 1
  45   23   55 1
  46   24   25 1
  47   24   56 1
  48   24   57 1
  49   25   58 1
  50   25   59 1
  51   25   60 1
  52   26   27 1
  53   26   31 1
  54   26   61 1
  55   26   62 1
  56   27   28 2
  57   27   33 1
  58   28   29 1
  59   28   34 1
  60   29   30 1
  61   29   63 1
  62   29   64 1
  63   30   31 1
  64   30   65 1
  65   30   66 1
  66   31   35 am
  67   32   33 1
  68   32   34 2
  69   33   67 1
  70   35   36 2
  71   35   37 1
  72   37   68 1
  73   37   69 1
  74   37   70 1

#	End of record

