#	Name: ASD01310045
#	Creating user name:	WinNT
#	Creation time:	15. 06. 2019 19:15

#	Modifying user name:	WinNT
#	Modification time:	15. 06. 2019 19:15

#	Program:	/corina/corina34_cracker 3.40 0067  02.08.2006

@<TRIPOS>MOLECULE
ASD01310045
  44   48    0    0    0
SMALL
NO_CHARGES


@<TRIPOS>ATOM
   1 C1            -0.0182     1.4940     0.0103 C.3     
   2 C2             0.0021    -0.0041     0.0020 C.ar    
   3 C3             0.0460    -0.7139    -1.1887 C.ar    
   4 C4            -0.1964     1.2708    -2.4802 C.2     
   5 N5            -0.0198    -0.6553     1.1547 N.ar    
   6 C6             0.0096    -1.9698     1.2190 C.ar    
   7 C7             0.0664    -2.7391     0.0719 C.ar    
   8 C8             0.0842    -2.1047    -1.1597 C.ar    
   9 N9             1.2880     3.4106    -0.5709 N.am    
  10 C10            1.4192     2.0564    -0.0004 C.3     
  11 C11           -0.6138     2.0766    -1.2837 C.3     
  12 C12            0.0616     3.4649    -1.3802 C.3     
  13 N13            0.0490    -0.0434    -2.4122 N.am    
  14 O14           -0.0772     1.8320    -3.5488 O.2     
  15 S15            2.3472     4.6623    -0.3388 S.o2    
  16 O16            1.6120     5.8572    -0.5645 O.2     
  17 O17            3.0317     4.3886     0.8761 O.2     
  18 C18            3.5526     4.5701    -1.6207 C.ar    
  19 C19            4.7024     3.8254    -1.4340 C.ar    
  20 C20            3.3439     5.2379    -2.8129 C.ar    
  21 C21            5.4511     4.4212    -3.6322 C.ar    
  22 C22            5.6509     3.7499    -2.4368 C.ar    
  23 C23            4.2901     5.1664    -3.8225 C.ar    
  24 O24            4.3264     5.7197    -5.0698 O.3     
  25 C25            5.7027     5.6409    -5.4854 C.3     
  26 O26            6.2144     4.5069    -4.7606 O.3     
  27 H27           -0.5599     1.8584     0.8831 H       
  28 H28           -1.6992     2.1536    -1.2198 H       
  29 C29            0.3257    -0.7895    -3.6423 C.3     
  30 H30           -0.0106    -2.4551     2.1836 H       
  31 H31            0.0957    -3.8169     0.1346 H       
  32 H32            0.1271    -2.6758    -2.0754 H       
  33 H33            1.8141     2.1085     1.0142 H       
  34 H34            2.0631     1.4406    -0.6283 H       
  35 H35           -0.6076     4.2308    -0.9882 H       
  36 H36            0.3117     3.6842    -2.4182 H       
  37 H37            4.8600     3.3018    -0.5027 H       
  38 H38            2.4428     5.8153    -2.9576 H       
  39 H39            6.5483     3.1678    -2.2881 H       
  40 H40            5.7691     5.4703    -6.5600 H       
  41 H41            6.2395     6.5476    -5.2067 H       
  42 H42           -0.6092    -1.1679    -4.0558 H       
  43 H43            0.8032    -0.1305    -4.3673 H       
  44 H44            0.9888    -1.6252    -3.4190 H       
@<TRIPOS>BOND
   1    1    2 1
   2    1   10 1
   3    1   11 1
   4    1   27 1
   5    2    3 ar
   6    2    5 ar
   7    3   13 1
   8    3    8 ar
   9    4   11 1
  10    4   14 2
  11    4   13 am
  12    5    6 ar
  13    6    7 ar
  14    6   30 1
  15    7    8 ar
  16    7   31 1
  17    8   32 1
  18    9   10 1
  19    9   12 1
  20    9   15 am
  21   10   33 1
  22   10   34 1
  23   11   12 1
  24   11   28 1
  25   12   35 1
  26   12   36 1
  27   13   29 1
  28   15   16 2
  29   15   17 2
  30   15   18 1
  31   18   20 ar
  32   18   19 ar
  33   19   22 ar
  34   19   37 1
  35   20   23 ar
  36   20   38 1
  37   21   22 ar
  38   21   26 1
  39   21   23 ar
  40   22   39 1
  41   23   24 1
  42   24   25 1
  43   25   26 1
  44   25   40 1
  45   25   41 1
  46   29   42 1
  47   29   43 1
  48   29   44 1

#	End of record

