#	Name: ASD00170065
#	Creating user name:	WinNT
#	Creation time:	15. 06. 2019 18:31

#	Modifying user name:	WinNT
#	Modification time:	15. 06. 2019 18:31

#	Program:	/corina/corina34_cracker 3.40 0067  02.08.2006

@<TRIPOS>MOLECULE
ASD00170065
  39   41    0    0    0
SMALL
NO_CHARGES


@<TRIPOS>ATOM
   1 C1             0.0146     1.3183    -0.0536 C.2     
   2 C2             0.0206    -0.0182    -0.0716 C.2     
   3 C3            -1.3168    -0.5802     0.0126 C.2     
   4 C4            -2.3005     0.3740     0.0929 C.2     
   5 S5            -1.6250     1.9363     0.0604 S.3     
   6 N6            -3.6502     0.1042     0.1820 N.pl3   
   7 C7            -1.5874    -2.0167     0.0120 C.2     
   8 C8            -1.8374    -2.7224    -1.2655 C.ar    
   9 O9            -1.6072    -2.6329     1.0619 O.2     
  10 C10           -1.9781    -4.1110    -1.2797 C.ar    
  11 C11           -2.2107    -4.7679    -2.4681 C.ar    
  12 C12           -2.3058    -4.0443    -3.6587 C.ar    
  13 C13           -2.1650    -2.6551    -3.6442 C.ar    
  14 C14           -1.9380    -1.9983    -2.4546 C.ar    
  15 C15            1.2612     2.1796    -0.1286 C.3     
  16 C16            2.4802     1.3107     0.1923 C.3     
  17 C17            2.4285     0.0419    -0.6640 C.3     
  18 C18            1.2887    -0.8515    -0.1690 C.3     
  19 C19           -2.5549    -4.7491    -4.9344 C.2     
  20 O20           -2.6466    -4.0510    -6.0827 O.3     
  21 O21           -2.6770    -5.9574    -4.9469 O.2     
  22 C22           -2.8924    -4.8085    -7.2969 C.3     
  23 H23           -3.9675    -0.8100     0.1157 H       
  24 H24           -4.2821     0.8288     0.3110 H       
  25 H25           -1.9042    -4.6706    -0.3589 H       
  26 H26           -2.3192    -5.8424    -2.4790 H       
  27 H27           -2.2385    -2.0952    -4.5648 H       
  28 H28           -1.8295    -0.9238    -2.4433 H       
  29 H29            1.3605     2.5920    -1.1327 H       
  30 H30            1.1893     2.9904     0.5963 H       
  31 H31            3.3919     1.8647    -0.0313 H       
  32 H32            2.4666     1.0391     1.2478 H       
  33 H33            2.2539     0.3121    -1.7055 H       
  34 H34            3.3740    -0.4937    -0.5792 H       
  35 H35            1.5391    -1.2528     0.8130 H       
  36 H36            1.1344    -1.6701    -0.8720 H       
  37 H37           -2.0819    -5.5208    -7.4510 H       
  38 H38           -3.8361    -5.3462    -7.2049 H       
  39 H39           -2.9438    -4.1271    -8.1461 H       
@<TRIPOS>BOND
   1    1    2 2
   2    1   15 1
   3    1    5 1
   4    2    3 1
   5    2   18 1
   6    3    4 2
   7    3    7 1
   8    4    5 1
   9    4    6 1
  10    6   23 1
  11    6   24 1
  12    7    8 1
  13    7    9 2
  14    8   10 ar
  15    8   14 ar
  16   10   11 ar
  17   10   25 1
  18   11   12 ar
  19   11   26 1
  20   12   13 ar
  21   12   19 1
  22   13   14 ar
  23   13   27 1
  24   14   28 1
  25   15   16 1
  26   15   29 1
  27   15   30 1
  28   16   17 1
  29   16   31 1
  30   16   32 1
  31   17   18 1
  32   17   33 1
  33   17   34 1
  34   18   35 1
  35   18   36 1
  36   19   20 1
  37   19   21 2
  38   20   22 1
  39   22   37 1
  40   22   38 1
  41   22   39 1

#	End of record

