#	Name: ASD01190231
#	Creating user name:	WinNT
#	Creation time:	15. 06. 2019 19:08

#	Modifying user name:	WinNT
#	Modification time:	15. 06. 2019 19:08

#	Program:	/corina/corina34_cracker 3.40 0067  02.08.2006

@<TRIPOS>MOLECULE
ASD01190231
  55   58    0    0    0
SMALL
NO_CHARGES


@<TRIPOS>ATOM
   1 N1             0.3231     1.2126    -0.4154 N.pl3   
   2 C2             0.3674    -0.0394    -0.9857 C.2     
   3 C3             1.6796    -0.4615    -0.9599 C.2     
   4 C4             2.4275     0.5585    -0.3635 C.2     
   5 C5             1.5780     1.5635    -0.0425 C.2     
   6 C6            -0.7738    -0.7885    -1.5224 C.2     
   7 O7            -1.9019    -0.3482    -1.4013 O.2     
   8 N8            -0.5732    -1.9644    -2.1497 N.am    
   9 C9            -1.6983    -2.6602    -2.7791 C.3     
  10 C10           -1.2211    -3.9108    -3.3915 C.1     
  11 N11           -0.8529    -4.8760    -3.8641 N.1     
  12 C12            3.9147     0.5421    -0.1202 C.3     
  13 C13            4.6434     0.2567    -1.4348 C.3     
  14 O14            4.3283     1.8121     0.3878 O.3     
  15 N15            5.0423    -3.6442     3.4593 N.pl3   
  16 N16            4.4801    -4.7024     2.7377 N.2     
  17 C17            3.9752    -4.2635     1.6196 C.2     
  18 C18            4.1998    -2.8225     1.5632 C.ar    
  19 C19            3.8903    -1.8256     0.6313 C.ar    
  20 C20            4.2479    -0.5325     0.8824 C.ar    
  21 C21            4.9166    -0.1977     2.0535 C.ar    
  22 C22            5.2301    -1.1534     2.9781 C.ar    
  23 C23            4.8777    -2.4808     2.7495 C.ar    
  24 C24            5.6674    -3.7533     4.7083 C.ar    
  25 C25            5.2001    -4.6687     5.6421 C.ar    
  26 C26            5.8177    -4.7745     6.8728 C.ar    
  27 C27            6.9023    -3.9686     7.1759 C.ar    
  28 C28            7.3699    -3.0551     6.2460 C.ar    
  29 C29            6.7587    -2.9501     5.0120 C.ar    
  30 F30            7.5048    -4.0734     8.3805 F       
  31 F31            4.3341     1.2543    -2.3656 F       
  32 F32            6.0240     0.2415    -1.2090 F       
  33 F33            4.2385    -0.9867    -1.9321 F       
  34 C34           -0.8793     2.0321    -0.2455 C.3     
  35 C35           -1.6088     1.6014     1.0008 C.2     
  36 C36           -1.8923     2.4798     1.9304 C.2     
  37 H37            2.0585    -1.4025    -1.3304 H       
  38 H38            1.8553     2.4927     0.4329 H       
  39 H39            0.3162    -2.3500    -2.1844 H       
  40 H40           -2.4516    -2.8891    -2.0253 H       
  41 H41           -2.1354    -2.0229    -3.5478 H       
  42 H42            3.9054     2.0589     1.2217 H       
  43 H43            3.4792    -4.8599     0.8681 H       
  44 H44            3.3714    -2.0779    -0.2816 H       
  45 H45            5.1923     0.8307     2.2349 H       
  46 H46            5.7504    -0.8800     3.8841 H       
  47 H47            4.3540    -5.2971     5.4063 H       
  48 H48            5.4543    -5.4861     7.5995 H       
  49 H49            8.2157    -2.4273     6.4844 H       
  50 H50            7.1267    -2.2410     4.2853 H       
  51 H51           -0.5948     3.0805    -0.1561 H       
  52 H52           -1.5308     1.9049    -1.1101 H       
  53 H53           -1.8978     0.5685     1.1277 H       
  54 H54           -2.4150     2.1711     2.8236 H       
  55 H55           -1.6032     3.5126     1.8036 H       
@<TRIPOS>BOND
   1    1    2 1
   2    1    5 1
   3    1   34 1
   4    2    3 2
   5    2    6 1
   6    3    4 1
   7    3   37 1
   8    4    5 2
   9    4   12 1
  10    5   38 1
  11    6    7 2
  12    6    8 am
  13    8    9 1
  14    8   39 1
  15    9   10 1
  16    9   40 1
  17    9   41 1
  18   10   11 3
  19   12   13 1
  20   12   14 1
  21   12   20 1
  22   13   31 1
  23   13   32 1
  24   13   33 1
  25   14   42 1
  26   15   16 1
  27   15   23 1
  28   15   24 1
  29   16   17 2
  30   17   18 1
  31   17   43 1
  32   18   19 ar
  33   18   23 ar
  34   19   20 ar
  35   19   44 1
  36   20   21 ar
  37   21   22 ar
  38   21   45 1
  39   22   23 ar
  40   22   46 1
  41   24   25 ar
  42   24   29 ar
  43   25   26 ar
  44   25   47 1
  45   26   27 ar
  46   26   48 1
  47   27   28 ar
  48   27   30 1
  49   28   29 ar
  50   28   49 1
  51   29   50 1
  52   34   35 1
  53   34   51 1
  54   34   52 1
  55   35   36 2
  56   35   53 1
  57   36   54 1
  58   36   55 1

#	End of record

