#	Name: ASD04220052
#	Creating user name:	WinNT
#	Creation time:	15. 06. 2019 20:48

#	Modifying user name:	WinNT
#	Modification time:	15. 06. 2019 20:48

#	Program:	/corina/corina34_cracker 3.40 0067  02.08.2006

@<TRIPOS>MOLECULE
ASD04220052
  65   66    0    0    0
SMALL
NO_CHARGES


@<TRIPOS>ATOM
   1 O1             2.4634     1.3632    -0.1677 O.3     
   2 C2             3.7264     0.7092    -0.3067 C.3     
   3 C3             4.3214     0.4514     1.0801 C.3     
   4 C4             4.4549     1.7829     1.8255 C.3     
   5 C5             3.0802     2.4547     1.8984 C.3     
   6 C6             2.5332     2.6351     0.4799 C.3     
   7 C7             3.5369    -0.6025    -1.0240 C.2     
   8 O8             3.4611    -0.4224     1.8139 O.3     
   9 O9             1.2266     3.2103     0.5427 O.3     
  10 O10            2.1871     1.6340     2.6538 O.3     
  11 C11            0.7289     3.6614    -0.7186 C.3     
  12 C12           -1.1901     5.2193    -2.2076 C.3     
  13 O13           -1.2620     3.7976    -2.0817 O.3     
  14 C14           -0.7521     3.2948    -0.8450 C.3     
  15 C15            0.8803     5.1827    -0.8142 C.3     
  16 C16            0.2733     5.6631    -2.1359 C.3     
  17 O17            5.3659     2.6331     1.1259 O.3     
  18 C18           -0.9058     1.7730    -0.8107 C.3     
  19 O19            2.2661     5.5288    -0.7708 O.3     
  20 O20           -1.9258     5.8296    -1.1454 O.3     
  21 C21            0.3487     7.1896    -2.2083 C.3     
  22 C22            3.7587    -1.8096     1.6428 C.3     
  23 O23            4.6053    -1.3296    -1.3867 O.3     
  24 O24            2.4232    -0.9997    -1.2727 O.2     
  25 S25            1.1874     2.4166     3.4932 S.o2    
  26 O26            0.5262     1.4673     4.3184 O.2     
  27 O27            1.8887     3.5397     4.0088 O.2     
  28 O28            0.1341     2.9671     2.5424 O.3     
  29 O29           -2.2941     1.4345    -0.8012 O.3     
  30 S30           -2.5667    -0.0621    -0.8477 S.o2    
  31 O31           -3.9717    -0.2095    -1.0008 O.2     
  32 O32           -1.6238    -0.6137    -1.7564 O.2     
  33 O33           -2.2225    -0.6256     0.5236 O.3     
  34 C34           -3.3302     5.5690    -1.1864 C.3     
  35 O35           -0.1171     7.6295    -3.4856 O.3     
  36 S36           -0.0859     9.1400    -3.6693 S.o2    
  37 O37           -0.7593     9.4097    -4.8912 O.2     
  38 O38           -0.4778     9.7037    -2.4251 O.2     
  39 O39            1.3676     9.5381    -3.8826 O.3     
  40 H40            4.4027     1.3430    -0.8803 H       
  41 H41            5.3045    -0.0075     0.9752 H       
  42 H42            4.8256     1.6006     2.8341 H       
  43 H43            3.1757     3.4286     2.3786 H       
  44 H44            3.1939     3.2941    -0.0834 H       
  45 H45            1.2922     3.1881    -1.5228 H       
  46 H46           -1.6152     5.5214    -3.1648 H       
  47 H47           -1.3075     3.7352    -0.0169 H       
  48 H48            0.3591     5.6540     0.0191 H       
  49 H49            0.8265     5.2303    -2.9695 H       
  50 H50            6.2562     2.2664     1.0363 H       
  51 H51           -0.4323     1.3400    -1.6920 H       
  52 H52           -0.4297     1.3799     0.0876 H       
  53 H53            2.7188     5.2392     0.0331 H       
  54 H54           -0.2748     7.6216    -1.4256 H       
  55 H55            1.3813     7.5093    -2.0682 H       
  56 H56            3.6636    -2.0744     0.5897 H       
  57 H57            4.7775    -2.0065     1.9764 H       
  58 H58            3.0618    -2.4060     2.2317 H       
  59 H59            4.4336    -2.1639    -1.8445 H       
  60 H60           -0.5561     3.4859     2.9778 H       
  61 H61           -2.2887    -1.5887     0.5811 H       
  62 H62           -3.8167     6.0666    -0.3475 H       
  63 H63           -3.7427     5.9469    -2.1219 H       
  64 H64           -3.5025     4.4946    -1.1211 H       
  65 H65            1.5007    10.4872    -4.0110 H       
@<TRIPOS>BOND
   1    1    2 1
   2    1    6 1
   3    2    3 1
   4    2    7 1
   5    2   40 1
   6    3    4 1
   7    3    8 1
   8    3   41 1
   9    4    5 1
  10    4   17 1
  11    4   42 1
  12    5    6 1
  13    5   10 1
  14    5   43 1
  15    6    9 1
  16    6   44 1
  17    7   23 1
  18    7   24 2
  19    8   22 1
  20    9   11 1
  21   10   25 1
  22   11   15 1
  23   11   14 1
  24   11   45 1
  25   12   13 1
  26   12   16 1
  27   12   20 1
  28   12   46 1
  29   13   14 1
  30   14   18 1
  31   14   47 1
  32   15   16 1
  33   15   19 1
  34   15   48 1
  35   16   21 1
  36   16   49 1
  37   17   50 1
  38   18   29 1
  39   18   51 1
  40   18   52 1
  41   19   53 1
  42   20   34 1
  43   21   35 1
  44   21   54 1
  45   21   55 1
  46   22   56 1
  47   22   57 1
  48   22   58 1
  49   23   59 1
  50   25   26 2
  51   25   27 2
  52   25   28 1
  53   28   60 1
  54   29   30 1
  55   30   31 2
  56   30   32 2
  57   30   33 1
  58   33   61 1
  59   34   62 1
  60   34   63 1
  61   34   64 1
  62   35   36 1
  63   36   37 2
  64   36   38 2
  65   36   39 1
  66   39   65 1

#	End of record

