#	Name: ASD01912145
#	Creating user name:	WinNT
#	Creation time:	15. 06. 2019 19:59

#	Modifying user name:	WinNT
#	Modification time:	15. 06. 2019 19:59

#	Program:	/corina/corina34_cracker 3.40 0067  02.08.2006

@<TRIPOS>MOLECULE
ASD01912145
  49   52    0    0    0
SMALL
NO_CHARGES


@<TRIPOS>ATOM
   1 C1            -0.2681     1.2181    -0.1368 C.3     
   2 C2            -0.4478    -0.2847     0.0899 C.3     
   3 C3             0.4302    -0.7343     1.2600 C.3     
   4 C4            -0.0041     0.0018     2.5314 C.3     
   5 N5             0.0271     1.4480     2.2745 N.am    
   6 C6            -0.7103     1.9763     1.1187 C.3     
   7 C7             0.8495     3.7055     2.7410 C.ar    
   8 C8             0.7191     2.2744     3.0837 C.2     
   9 O9             1.2359     1.8422     4.0955 O.2     
  10 C10            1.1824     1.5144    -0.4186 C.2     
  11 O11            2.2151     1.2663     0.3932 O.3     
  12 N12            3.2502     1.6228    -0.1288 N.2     
  13 C13            3.0051     2.1303    -1.3117 C.2     
  14 N14            1.6673     2.0578    -1.5066 N.2     
  15 C15            4.0018     2.6749    -2.2570 C.2     
  16 C16            0.8975     4.1036     1.4037 C.ar    
  17 C17            1.0188     5.4405     1.0865 C.ar    
  18 C18            1.0936     6.3905     2.0913 C.ar    
  19 C19            1.0470     6.0020     3.4264 C.ar    
  20 C20            0.9192     4.6646     3.7536 C.ar    
  21 F21            1.2128     7.6983     1.7742 F       
  22 C22            0.9558    -0.3372     3.6735 C.3     
  23 C23            5.3483     2.7395    -2.0545 C.2     
  24 C24            5.9155     3.3235    -3.1979 C.2     
  25 C25            4.9111     3.5977    -4.0605 C.2     
  26 N26            3.7367     3.1998    -3.4967 N.pl3   
  27 Cl27           7.6031     3.6372    -3.4577 Cl      
  28 O28            1.1212     6.9382     4.4097 O.3     
  29 C29            1.0672     6.4684     5.7581 C.3     
  30 H30           -0.8753     1.5332    -0.9854 H       
  31 H31           -1.4926    -0.4952     0.3180 H       
  32 H32           -0.1570    -0.8252    -0.8109 H       
  33 H33            0.3195    -1.8088     1.4060 H       
  34 H34            1.4727    -0.5017     1.0431 H       
  35 H35           -1.0164    -0.2998     2.8004 H       
  36 H36           -0.4923     3.0378     1.0003 H       
  37 H37           -1.7802     1.8358     1.2726 H       
  38 H38            0.8401     3.3650     0.6179 H       
  39 H39            1.0558     5.7472     0.0516 H       
  40 H40            0.8825     4.3617     4.7896 H       
  41 H41            1.9383     0.0835     3.4593 H       
  42 H42            0.5757     0.0834     4.6045 H       
  43 H43            1.0374    -1.4198     3.7705 H       
  44 H44            5.8801     2.4040    -1.1764 H       
  45 H45            5.0217     4.0522    -5.0339 H       
  46 H46            2.8589     3.2794    -3.9017 H       
  47 H47            0.1256     5.9446     5.9230 H       
  48 H48            1.8985     5.7870     5.9391 H       
  49 H49            1.1363     7.3152     6.4409 H       
@<TRIPOS>BOND
   1    1    2 1
   2    1   10 1
   3    1    6 1
   4    1   30 1
   5    2    3 1
   6    2   31 1
   7    2   32 1
   8    3    4 1
   9    3   33 1
  10    3   34 1
  11    4    5 1
  12    4   22 1
  13    4   35 1
  14    5    6 1
  15    5    8 am
  16    6   36 1
  17    6   37 1
  18    7    8 1
  19    7   16 ar
  20    7   20 ar
  21    8    9 2
  22   10   11 1
  23   10   14 2
  24   11   12 1
  25   12   13 2
  26   13   14 1
  27   13   15 1
  28   15   23 2
  29   15   26 1
  30   16   17 ar
  31   16   38 1
  32   17   18 ar
  33   17   39 1
  34   18   19 ar
  35   18   21 1
  36   19   20 ar
  37   19   28 1
  38   20   40 1
  39   22   41 1
  40   22   42 1
  41   22   43 1
  42   23   24 1
  43   23   44 1
  44   24   25 2
  45   24   27 1
  46   25   26 1
  47   25   45 1
  48   26   46 1
  49   28   29 1
  50   29   47 1
  51   29   48 1
  52   29   49 1

#	End of record

