#	Name: ASD01914151
#	Creating user name:	WinNT
#	Creation time:	15. 06. 2019 20:02

#	Modifying user name:	WinNT
#	Modification time:	15. 06. 2019 20:02

#	Program:	/corina/corina34_cracker 3.40 0067  02.08.2006

@<TRIPOS>MOLECULE
ASD01914151
  45   48    0    0    0
SMALL
NO_CHARGES


@<TRIPOS>ATOM
   1 C1            -0.8255     1.6244    -0.1863 C.2     
   2 C2            -0.6670     0.1644    -0.1782 C.2     
   3 N3            -1.6358    -0.7374    -0.1140 N.2     
   4 C4            -1.0194    -1.9282    -0.1344 C.2     
   5 N5             0.2608    -1.7095    -0.2079 N.2     
   6 O6             0.4886    -0.5187    -0.2402 O.3     
   7 C7            -1.6893    -3.2771    -0.0816 C.3     
   8 C8            -1.3406    -4.0703    -1.3432 C.3     
   9 C9            -2.0468    -5.4275    -1.3059 C.3     
  10 C10           -1.5604    -6.2185    -0.0876 C.3     
  11 N11           -1.7596    -5.4013     1.1171 N.am    
  12 C12           -1.1987    -4.0437     1.1506 C.3     
  13 C13           -0.0737    -6.5431    -0.2471 C.3     
  14 C14           -2.4438    -5.8878     2.1715 C.2     
  15 C15           -2.5253    -5.1051     3.4266 C.ar    
  16 O16           -2.9938    -6.9685     2.0926 O.2     
  17 C17            0.1902     2.5526    -0.2533 C.2     
  18 C18           -0.4070     3.8197    -0.2349 C.2     
  19 C19           -1.7473     3.6451    -0.1585 C.2     
  20 N20           -2.0148     2.3124    -0.1343 N.pl3   
  21 Cl21           0.4237     5.3427    -0.2980 Cl      
  22 C22           -3.7184    -5.0349     4.1524 C.ar    
  23 C23           -3.7559    -4.2938     5.3212 C.ar    
  24 N24           -2.6898    -3.6581     5.7557 N.ar    
  25 C25           -1.5350    -3.6947     5.1018 C.ar    
  26 C26           -1.4106    -4.4223     3.9195 C.ar    
  27 C27           -0.4046    -2.9838     5.6189 C.1     
  28 N28            0.4921    -2.4198     6.0291 N.1     
  29 H29           -2.7696    -3.1447    -0.0221 H       
  30 H30           -1.6667    -3.5152    -2.2228 H       
  31 H31           -0.2624    -4.2231    -1.3896 H       
  32 H32           -3.1238    -5.2753    -1.2345 H       
  33 H33           -1.8168    -5.9824    -2.2155 H       
  34 H34           -2.1311    -7.1430    -0.0005 H       
  35 H35           -0.1101    -4.0977     1.1379 H       
  36 H36           -1.5309    -3.5334     2.0546 H       
  37 H37            0.4940    -5.6162    -0.3274 H       
  38 H38            0.2704    -7.1059     0.6207 H       
  39 H39            0.0735    -7.1387    -1.1480 H       
  40 H40            1.2482     2.3429    -0.3091 H       
  41 H41           -2.4834     4.4347    -0.1268 H       
  42 H42           -2.8974     1.9134    -0.0823 H       
  43 H43           -4.6004    -5.5525     3.8052 H       
  44 H44           -4.6753    -4.2365     5.8849 H       
  45 H45           -0.4703    -4.4512     3.3890 H       
@<TRIPOS>BOND
   1    1    2 1
   2    1   17 2
   3    1   20 1
   4    2    3 2
   5    2    6 1
   6    3    4 1
   7    4    5 2
   8    4    7 1
   9    5    6 1
  10    7    8 1
  11    7   12 1
  12    7   29 1
  13    8    9 1
  14    8   30 1
  15    8   31 1
  16    9   10 1
  17    9   32 1
  18    9   33 1
  19   10   11 1
  20   10   13 1
  21   10   34 1
  22   11   12 1
  23   11   14 am
  24   12   35 1
  25   12   36 1
  26   13   37 1
  27   13   38 1
  28   13   39 1
  29   14   15 1
  30   14   16 2
  31   15   22 ar
  32   15   26 ar
  33   17   18 1
  34   17   40 1
  35   18   19 2
  36   18   21 1
  37   19   20 1
  38   19   41 1
  39   20   42 1
  40   22   23 ar
  41   22   43 1
  42   23   24 ar
  43   23   44 1
  44   24   25 ar
  45   25   26 ar
  46   25   27 1
  47   26   45 1
  48   27   28 3

#	End of record

