#	Name: ASD01200385
#	Creating user name:	WinNT
#	Creation time:	15. 06. 2019 19:09

#	Modifying user name:	WinNT
#	Modification time:	15. 06. 2019 19:09

#	Program:	/corina/corina34_cracker 3.40 0067  02.08.2006

@<TRIPOS>MOLECULE
ASD01200385
  64   66    0    0    0
SMALL
NO_CHARGES


@<TRIPOS>ATOM
   1 N1            -0.0178     1.4608     0.0101 N.pl3   
   2 C2             0.0226     0.0209     0.2770 C.3     
   3 C3            -0.9994    -0.3257     1.3615 C.3     
   4 P4            -0.3782    -0.8916    -1.2495 P.3     
   5 C5             1.1717     2.1747    -0.1518 C.ar    
   6 O6            -0.2062    -2.4714    -0.9913 O.3     
   7 O7            -1.7760    -0.6053    -1.6427 O.2     
   8 O8             0.6163    -0.4290    -2.4281 O.3     
   9 C9             0.4906    -0.8853    -3.7764 C.3     
  10 C10            1.5906    -0.2548    -4.6329 C.3     
  11 C11           -0.5465    -3.4607    -1.9647 C.3     
  12 C12           -0.2610    -4.8530    -1.3982 C.3     
  13 C13            1.1444     3.5601    -0.2492 C.ar    
  14 C14            2.3224     4.2629    -0.4093 C.ar    
  15 C15            3.5282     3.5889    -0.4731 C.ar    
  16 C16            3.5591     2.2098    -0.3765 C.ar    
  17 C17            2.3853     1.5013    -0.2101 C.ar    
  18 N18           -2.3442     0.0502     0.9052 N.3     
  19 C19           -3.3539    -0.2686     1.9234 C.3     
  20 N20            4.7886     4.3453    -0.6457 N.pl3   
  21 O21            4.7630     5.5600    -0.7313 O.2     
  22 O22            5.8515     3.7531    -0.7021 O.2     
  23 C23           -3.4437     0.8638     2.9136 C.ar    
  24 C24           -4.6928    -0.4629     1.2596 C.ar    
  25 C25           -3.5927     0.5936     4.2611 C.ar    
  26 C26           -3.6751     1.6323     5.1694 C.ar    
  27 C27           -3.6082     2.9414     4.7303 C.ar    
  28 C28           -3.4584     3.2116     3.3829 C.ar    
  29 C29           -3.3715     2.1728     2.4751 C.ar    
  30 C30           -5.0749     0.3635     0.2194 C.ar    
  31 C31           -5.5364    -1.4711     1.6871 C.ar    
  32 C32           -6.7646    -1.6492     1.0783 C.ar    
  33 C33           -7.1493    -0.8189     0.0422 C.ar    
  34 C34           -6.3031     0.1853    -0.3895 C.ar    
  35 H35           -0.8707     1.9176    -0.0582 H       
  36 H36            1.0204    -0.2581     0.6156 H       
  37 H37           -0.9693    -1.3970     1.5601 H       
  38 H38           -0.7597     0.2199     2.2742 H       
  39 H39            0.5866    -1.9707    -3.8031 H       
  40 H40           -0.4849    -0.5971    -4.1681 H       
  41 H41            2.5661    -0.5430    -4.2412 H       
  42 H42            1.4947    -0.6029    -5.6613 H       
  43 H43            1.4946     0.8306    -4.6062 H       
  44 H44           -1.6051    -3.3788    -2.2113 H       
  45 H45            0.0492    -3.3053    -2.8642 H       
  46 H46           -0.8567    -5.0083    -0.4986 H       
  47 H47           -0.5206    -5.6076    -2.1406 H       
  48 H48            0.7976    -4.9349    -1.1516 H       
  49 H49            0.2029     4.0870    -0.2002 H       
  50 H50            2.3019     5.3400    -0.4851 H       
  51 H51            4.5024     1.6865    -0.4271 H       
  52 H52            2.4101     0.4242    -0.1348 H       
  53 H53           -2.3807     1.0265     0.6530 H       
  54 H54           -3.0697    -1.1838     2.4429 H       
  55 H55           -3.6449    -0.4292     4.6042 H       
  56 H56           -3.7922     1.4212     6.2221 H       
  57 H57           -3.6733     3.7530     5.4399 H       
  58 H58           -3.4064     4.2344     3.0398 H       
  59 H59           -3.2545     2.3839     1.4224 H       
  60 H60           -4.4141     1.1486    -0.1173 H       
  61 H61           -5.2358    -2.1197     2.4966 H       
  62 H62           -7.4234    -2.4373     1.4118 H       
  63 H63           -8.1088    -0.9583    -0.4337 H       
  64 H64           -6.6016     0.8309    -1.2021 H       
@<TRIPOS>BOND
   1    1    2 1
   2    1    5 1
   3    1   35 1
   4    2    3 1
   5    2    4 1
   6    2   36 1
   7    3   18 1
   8    3   37 1
   9    3   38 1
  10    4    6 1
  11    4    7 2
  12    4    8 1
  13    5   13 ar
  14    5   17 ar
  15    6   11 1
  16    8    9 1
  17    9   10 1
  18    9   39 1
  19    9   40 1
  20   10   41 1
  21   10   42 1
  22   10   43 1
  23   11   12 1
  24   11   44 1
  25   11   45 1
  26   12   46 1
  27   12   47 1
  28   12   48 1
  29   13   14 ar
  30   13   49 1
  31   14   15 ar
  32   14   50 1
  33   15   16 ar
  34   15   20 1
  35   16   17 ar
  36   16   51 1
  37   17   52 1
  38   18   19 1
  39   18   53 1
  40   19   23 1
  41   19   24 1
  42   19   54 1
  43   20   21 2
  44   20   22 2
  45   23   25 ar
  46   23   29 ar
  47   24   31 ar
  48   24   30 ar
  49   25   26 ar
  50   25   55 1
  51   26   27 ar
  52   26   56 1
  53   27   28 ar
  54   27   57 1
  55   28   29 ar
  56   28   58 1
  57   29   59 1
  58   30   34 ar
  59   30   60 1
  60   31   32 ar
  61   31   61 1
  62   32   33 ar
  63   32   62 1
  64   33   34 ar
  65   33   63 1
  66   34   64 1

#	End of record

