#	Name: ASD01812693
#	Creating user name:	WinNT
#	Creation time:	15. 06. 2019 19:29

#	Modifying user name:	WinNT
#	Modification time:	15. 06. 2019 19:29

#	Program:	/corina/corina34_cracker 3.40 0067  02.08.2006

@<TRIPOS>MOLECULE
ASD01812693
  53   57    0    0    0
SMALL
NO_CHARGES


@<TRIPOS>ATOM
   1 O1            -0.0163     1.3522     0.0095 O.3     
   2 C2             0.0021    -0.0041     0.0020 C.ar    
   3 C3             1.2105    -0.6847    -0.0132 C.ar    
   4 C4             1.2312    -2.0655    -0.0203 C.ar    
   5 C5             0.0448    -2.7828    -0.0124 C.ar    
   6 C6            -1.1604    -2.1223     0.0023 C.ar    
   7 C7            -1.2004    -0.7252     0.0155 C.ar    
   8 C8            -2.5947    -2.5891     0.0133 C.3     
   9 N9            -3.4200    -1.3759     0.0272 N.am    
  10 C10           -2.6104    -0.3028     0.0376 C.2     
  11 C11           -4.8845    -1.3401     0.0406 C.3     
  12 O12           -2.9891     0.8526     0.0493 O.2     
  13 C13           -5.3738    -1.3353     1.4660 C.ar    
  14 C14           -5.5681    -0.1338     2.1236 C.ar    
  15 C15           -6.0160    -0.1231     3.4288 C.ar    
  16 C16           -6.2727    -1.3264     4.0847 C.ar    
  17 C17           -6.0750    -2.5342     3.4167 C.ar    
  18 C18           -5.6322    -2.5322     2.1097 C.ar    
  19 C19            1.1734     2.0057     0.0016 C.ar    
  20 C20            1.7788     2.3511    -1.2138 C.ar    
  21 C21            3.0035     3.0242    -1.2092 C.ar    
  22 C22            3.6081     3.3441    -0.0129 C.ar    
  23 C23            3.0080     3.0013     1.1876 C.ar    
  24 C24            1.7936     2.3402     1.1983 C.ar    
  25 F25            1.2126     2.0146     2.3738 F       
  26 C26            1.1463     2.0158    -2.4540 C.1     
  27 N27            0.6445     1.7497    -3.4379 N.1     
  28 C28           -6.7534    -1.3217     5.4865 C.ar    
  29 C29           -7.8831    -2.0776     5.8499 C.ar    
  30 C30           -8.3238    -2.0638     7.1737 C.ar    
  31 C31           -7.6524    -1.3121     8.1157 C.ar    
  32 C32           -6.5407    -0.5686     7.7566 C.ar    
  33 C33           -6.0868    -0.5741     6.4526 C.ar    
  34 C34           -8.5762    -2.8555     4.8676 C.1     
  35 N35           -9.1261    -3.4727     4.0883 N.1     
  36 H36            2.1387    -0.1327    -0.0198 H       
  37 H37            2.1758    -2.5889    -0.0325 H       
  38 H38            0.0677    -3.8626    -0.0180 H       
  39 H39           -2.8049    -3.1752    -0.8813 H       
  40 H40           -2.7882    -3.1842     0.9058 H       
  41 H41           -5.2306    -0.4389    -0.4654 H       
  42 H42           -5.2741    -2.2183    -0.4743 H       
  43 H43           -5.3686     0.7976     1.6146 H       
  44 H44           -6.1670     0.8155     3.9413 H       
  45 H45           -6.2722    -3.4694     3.9197 H       
  46 H46           -5.4828    -3.4670     1.5898 H       
  47 H47            3.4759     3.2932    -2.1424 H       
  48 H48            4.5545     3.8644    -0.0113 H       
  49 H49            3.4893     3.2553     2.1204 H       
  50 H50           -9.1904    -2.6410     7.4607 H       
  51 H51           -7.9961    -1.3031     9.1395 H       
  52 H52           -6.0230     0.0165     8.5023 H       
  53 H53           -5.2165     0.0051     6.1815 H       
@<TRIPOS>BOND
   1    1    2 1
   2    1   19 1
   3    2    3 ar
   4    2    7 ar
   5    3    4 ar
   6    3   36 1
   7    4    5 ar
   8    4   37 1
   9    5    6 ar
  10    5   38 1
  11    6    8 1
  12    6    7 ar
  13    7   10 1
  14    8    9 1
  15    8   39 1
  16    8   40 1
  17    9   10 am
  18    9   11 1
  19   10   12 2
  20   11   13 1
  21   11   41 1
  22   11   42 1
  23   13   14 ar
  24   13   18 ar
  25   14   15 ar
  26   14   43 1
  27   15   16 ar
  28   15   44 1
  29   16   17 ar
  30   16   28 1
  31   17   18 ar
  32   17   45 1
  33   18   46 1
  34   19   20 ar
  35   19   24 ar
  36   20   21 ar
  37   20   26 1
  38   21   22 ar
  39   21   47 1
  40   22   23 ar
  41   22   48 1
  42   23   24 ar
  43   23   49 1
  44   24   25 1
  45   26   27 3
  46   28   29 ar
  47   28   33 ar
  48   29   30 ar
  49   29   34 1
  50   30   31 ar
  51   30   50 1
  52   31   32 ar
  53   31   51 1
  54   32   33 ar
  55   32   52 1
  56   33   53 1
  57   34   35 3

#	End of record

