#	Name: ASD01910763
#	Creating user name:	WinNT
#	Creation time:	15. 06. 2019 19:56

#	Modifying user name:	WinNT
#	Modification time:	15. 06. 2019 19:56

#	Program:	/corina/corina34_cracker 3.40 0067  02.08.2006

@<TRIPOS>MOLECULE
ASD01910763
  50   53    0    0    0
SMALL
NO_CHARGES


@<TRIPOS>ATOM
   1 C1            -0.1165     1.7500     0.3957 C.ar    
   2 C2            -0.0221     0.3700     0.4077 C.ar    
   3 C3            -1.1660    -0.4026     0.3537 C.ar    
   4 C4            -2.4121     0.2068     0.2873 C.ar    
   5 C5            -2.5051     1.5927     0.2754 C.ar    
   6 C6            -1.3581     2.3612     0.3353 C.ar    
   7 N7            -3.5705    -0.5728     0.2322 N.3     
   8 C8            -4.7708     0.2715     0.1670 C.3     
   9 C9            -5.9999    -0.6114    -0.0740 C.3     
  10 N10           -6.0319    -1.6593     0.9575 N.am    
  11 C11           -4.8164    -2.4580     1.1760 C.3     
  12 C12           -3.6339    -1.5024     1.3679 C.3     
  13 C13           -7.1455    -1.8814     1.6836 C.2     
  14 C14           -7.1982    -3.0188     2.6271 C.ar    
  15 O15           -8.1063    -1.1468     1.5628 O.2     
  16 C16           -7.8218    -2.8702     3.8679 C.ar    
  17 C17           -7.8729    -3.9311     4.7508 C.ar    
  18 C18           -7.3090    -5.1451     4.4146 C.ar    
  19 C19           -6.6813    -5.3085     3.1756 C.ar    
  20 C20           -6.6312    -4.2424     2.2777 C.ar    
  21 C21           -6.0962    -6.5683     2.8277 C.1     
  22 C22           -5.6164    -7.6012     2.5425 C.1     
  23 C23           -5.0313    -8.8610     2.1947 C.ar    
  24 C24           -4.4038    -9.0258     0.9570 C.ar    
  25 C25           -3.8420   -10.2420     0.6291 C.ar    
  26 C26           -3.8990   -11.2976     1.5220 C.ar    
  27 C27           -4.5192   -11.1419     2.7492 C.ar    
  28 C28           -5.0799    -9.9298     3.0935 C.ar    
  29 Cl29           1.3232     2.7177     0.4637 Cl      
  30 Cl30          -1.4726     4.0933     0.3205 Cl      
  31 H31            0.9470    -0.1039     0.4590 H       
  32 H32           -1.0912    -1.4800     0.3628 H       
  33 H33           -3.4730     2.0691     0.2235 H       
  34 H34           -4.8884     0.8098     1.1075 H       
  35 H35           -4.6696     0.9851    -0.6507 H       
  36 H36           -6.9040    -0.0060    -0.0092 H       
  37 H37           -5.9332    -1.0705    -1.0604 H       
  38 H38           -4.9381    -3.0736     2.0673 H       
  39 H39           -4.6359    -3.0946     0.3098 H       
  40 H40           -2.7082    -2.0754     1.4211 H       
  41 H41           -3.7674    -0.9395     2.2917 H       
  42 H42           -8.2649    -1.9230     4.1380 H       
  43 H43           -8.3561    -3.8100     5.7091 H       
  44 H44           -7.3522    -5.9705     5.1098 H       
  45 H45           -6.1479    -4.3624     1.3194 H       
  46 H46           -4.3592    -8.2030     0.2589 H       
  47 H47           -3.3567   -10.3708    -0.3271 H       
  48 H48           -3.4577   -12.2477     1.2597 H       
  49 H49           -4.5605   -11.9704     3.4408 H       
  50 H50           -5.5636    -9.8097     4.0517 H       
@<TRIPOS>BOND
   1    1    2 ar
   2    1   29 1
   3    1    6 ar
   4    2    3 ar
   5    2   31 1
   6    3    4 ar
   7    3   32 1
   8    4    5 ar
   9    4    7 1
  10    5    6 ar
  11    5   33 1
  12    6   30 1
  13    7    8 1
  14    7   12 1
  15    8    9 1
  16    8   34 1
  17    8   35 1
  18    9   10 1
  19    9   36 1
  20    9   37 1
  21   10   11 1
  22   10   13 am
  23   11   12 1
  24   11   38 1
  25   11   39 1
  26   12   40 1
  27   12   41 1
  28   13   14 1
  29   13   15 2
  30   14   16 ar
  31   14   20 ar
  32   16   17 ar
  33   16   42 1
  34   17   18 ar
  35   17   43 1
  36   18   19 ar
  37   18   44 1
  38   19   20 ar
  39   19   21 1
  40   20   45 1
  41   21   22 3
  42   22   23 1
  43   23   24 ar
  44   23   28 ar
  45   24   25 ar
  46   24   46 1
  47   25   26 ar
  48   25   47 1
  49   26   27 ar
  50   26   48 1
  51   27   28 ar
  52   27   49 1
  53   28   50 1

#	End of record

