#	Name: ASD03230009
#	Creating user name:	WinNT
#	Creation time:	15. 06. 2019 20:34

#	Modifying user name:	WinNT
#	Modification time:	15. 06. 2019 20:34

#	Program:	/corina/corina34_cracker 3.40 0067  02.08.2006

@<TRIPOS>MOLECULE
ASD03230009
  20   20    0    0    0
SMALL
NO_CHARGES


@<TRIPOS>ATOM
   1 C1            -0.0167     1.3770     0.0096 C.ar    
   2 C2             0.0021    -0.0041     0.0020 C.ar    
   3 C3             1.2062    -0.6898    -0.0128 C.ar    
   4 C4             2.3989    -0.0008    -0.0200 C.ar    
   5 C5             2.3956     1.3987    -0.0129 C.ar    
   6 C6             1.1728     2.0886     0.0021 C.ar    
   7 C7             3.6632     2.1409    -0.0201 C.2     
   8 C8             4.8374     1.4726    -0.0336 C.2     
   9 C9             6.0607     2.1889    -0.0406 C.2     
  10 O10            7.2333     1.5214    -0.0541 O.3     
  11 O11            6.0533     3.4053    -0.0344 O.2     
  12 O12            1.1556     3.4453     0.0086 O.3     
  13 H13           -0.9597     1.9033     0.0169 H       
  14 H14           -0.9279    -0.5532     0.0080 H       
  15 H15            1.2095    -1.7698    -0.0182 H       
  16 H16            3.3348    -0.5396    -0.0308 H       
  17 H17            3.6567     3.2209    -0.0146 H       
  18 H18            4.8440     0.3926    -0.0391 H       
  19 H19            8.0121     2.0946    -0.0579 H       
  20 H20            1.1421     3.8428    -0.8728 H       
@<TRIPOS>BOND
   1    1    2 ar
   2    1    6 ar
   3    1   13 1
   4    2    3 ar
   5    2   14 1
   6    3    4 ar
   7    3   15 1
   8    4    5 ar
   9    4   16 1
  10    5    6 ar
  11    5    7 1
  12    6   12 1
  13    7    8 2
  14    7   17 1
  15    8    9 1
  16    8   18 1
  17    9   10 1
  18    9   11 2
  19   10   19 1
  20   12   20 1

#	End of record

