#	Name: ASD01190133
#	Creating user name:	WinNT
#	Creation time:	15. 06. 2019 19:07

#	Modifying user name:	WinNT
#	Modification time:	15. 06. 2019 19:07

#	Program:	/corina/corina34_cracker 3.40 0067  02.08.2006

@<TRIPOS>MOLECULE
ASD01190133
  47   51    0    0    0
SMALL
NO_CHARGES


@<TRIPOS>ATOM
   1 N1            -0.0178     1.4608     0.0101 N.pl3   
   2 C2             0.0021    -0.0041     0.0020 C.3     
   3 C3             0.1484    -0.5200     1.4349 C.3     
   4 N4            -4.6569    -2.1181    -2.3291 N.pl3   
   5 N5            -4.0782    -3.1603    -3.0609 N.2     
   6 C6            -2.7877    -3.1707    -2.8813 C.2     
   7 C7            -2.4538    -2.0760    -1.9757 C.ar    
   8 C8            -1.2587    -1.5975    -1.4272 C.ar    
   9 C9            -1.2844    -0.5207    -0.5890 C.ar    
  10 C10           -2.4854     0.1036    -0.2750 C.ar    
  11 C11           -3.6651    -0.3456    -0.7977 C.ar    
  12 C12           -3.6700    -1.4417    -1.6560 C.ar    
  13 C13           -6.0231    -1.8104    -2.2937 C.ar    
  14 C14           -6.8041    -1.9818    -3.4290 C.ar    
  15 C15           -8.1508    -1.6778    -3.3920 C.ar    
  16 C16           -8.7223    -1.2023    -2.2236 C.ar    
  17 C17           -7.9452    -1.0306    -1.0903 C.ar    
  18 C18           -6.5994    -1.3389    -1.1215 C.ar    
  19 F19          -10.0398    -0.9051    -2.1896 F       
  20 F20           -0.9310    -0.0725     2.2042 F       
  21 F21            0.1674    -1.9189     1.4273 F       
  22 F22            1.3427    -0.0405     1.9836 F       
  23 N23            0.1591     4.5116     0.0249 N.pl3   
  24 C24            0.6947     5.7698     0.0265 C.2     
  25 C25            2.0352     5.6959     0.0127 C.2     
  26 C26            2.3861     4.2739     0.0013 C.ar    
  27 C27            3.5956     3.5724    -0.0138 C.ar    
  28 C28            3.5904     2.2064    -0.0205 C.ar    
  29 C29            2.3931     1.5045    -0.0127 C.ar    
  30 C30            1.1835     2.1763     0.0024 C.ar    
  31 C31            1.1688     3.5734     0.0096 C.ar    
  32 H32           -0.8643     1.9343     0.0167 H       
  33 H33            0.8431    -0.3527    -0.5974 H       
  34 H34           -2.0894    -3.8659    -3.3236 H       
  35 H35           -0.3212    -2.0777    -1.6657 H       
  36 H36           -2.4865     0.9540     0.3907 H       
  37 H37           -4.5918     0.1484    -0.5454 H       
  38 H38           -6.3587    -2.3523    -4.3405 H       
  39 H39           -8.7585    -1.8107    -4.2748 H       
  40 H40           -8.3928    -0.6593    -0.1802 H       
  41 H41           -5.9947    -1.2094    -0.2361 H       
  42 H42           -0.7896     4.3095     0.0370 H       
  43 H43            0.1241     6.6867     0.0370 H       
  44 H44            2.7243     6.5275     0.0101 H       
  45 H45            4.5324     4.1097    -0.0206 H       
  46 H46            4.5265     1.6678    -0.0322 H       
  47 H47            2.4056     0.4246    -0.0188 H       
@<TRIPOS>BOND
   1    1    2 1
   2    1   30 1
   3    1   32 1
   4    2    3 1
   5    2    9 1
   6    2   33 1
   7    3   20 1
   8    3   21 1
   9    3   22 1
  10    4    5 1
  11    4   12 1
  12    4   13 1
  13    5    6 2
  14    6    7 1
  15    6   34 1
  16    7    8 ar
  17    7   12 ar
  18    8    9 ar
  19    8   35 1
  20    9   10 ar
  21   10   11 ar
  22   10   36 1
  23   11   12 ar
  24   11   37 1
  25   13   14 ar
  26   13   18 ar
  27   14   15 ar
  28   14   38 1
  29   15   16 ar
  30   15   39 1
  31   16   17 ar
  32   16   19 1
  33   17   18 ar
  34   17   40 1
  35   18   41 1
  36   23   24 1
  37   23   31 1
  38   23   42 1
  39   24   25 2
  40   24   43 1
  41   25   26 1
  42   25   44 1
  43   26   27 ar
  44   26   31 ar
  45   27   28 ar
  46   27   45 1
  47   28   29 ar
  48   28   46 1
  49   29   30 ar
  50   29   47 1
  51   30   31 ar

#	End of record

