#	Name: ASD01811595
#	Creating user name:	WinNT
#	Creation time:	15. 06. 2019 19:27

#	Modifying user name:	WinNT
#	Modification time:	15. 06. 2019 19:27

#	Program:	/corina/corina34_cracker 3.40 0067  02.08.2006

@<TRIPOS>MOLECULE
ASD01811595
  64   68    0    0    0
SMALL
NO_CHARGES


@<TRIPOS>ATOM
   1 C1            -0.1290     1.5441    -0.2507 C.ar    
   2 C2             0.1029     0.1770    -0.0862 C.ar    
   3 C3            -0.9481    -0.6774     0.1818 C.ar    
   4 C4            -2.2345    -0.1871     0.2889 C.ar    
   5 C5            -2.4803     1.1779     0.1265 C.ar    
   6 C6            -1.4230     2.0462    -0.1388 C.ar    
   7 C7            -3.8583     1.7015     0.2415 C.2     
   8 O8            -4.5515     1.3855     1.1886 O.2     
   9 N9            -4.3457     2.5292    -0.7039 N.am    
  10 C10           -5.6659     3.1538    -0.5436 C.3     
  11 C11           -6.5081     2.8527    -1.7874 C.3     
  12 C12           -5.7465     3.3042    -3.0357 C.3     
  13 C13           -4.4324     2.5272    -3.1425 C.3     
  14 C14           -3.5643     2.8290    -1.9115 C.3     
  15 C15           -6.5864     3.0406    -4.2589 C.ar    
  16 C16           -6.9580     4.0880    -5.0810 C.ar    
  17 C17           -6.9805     1.7508    -4.5619 C.ar    
  18 C18           -7.7509     1.5090    -5.6839 C.ar    
  19 C19           -8.1276     2.5572    -6.5027 C.ar    
  20 C20           -7.7285     3.8463    -6.2030 C.ar    
  21 C21            0.9986     2.4581    -0.5373 C.2     
  22 N22            2.2766     2.1514    -0.5238 N.2     
  23 N23            2.9748     3.1891    -0.8206 N.2     
  24 C24            2.1897     4.2099    -1.0388 C.2     
  25 N25            0.9087     3.7820    -0.8724 N.pl3   
  26 C26            2.6228     5.6042    -1.4122 C.3     
  27 C27           -3.3756    -1.1271     0.5810 C.3     
  28 C28            1.5035    -0.3672    -0.2018 C.3     
  29 C29            2.0678    -0.9026     1.1247 C.3     
  30 C30            2.6788    -2.0543     0.3092 C.3     
  31 C31            1.5614    -1.8140    -0.7197 C.3     
  32 C32           -8.9671     2.2936    -7.7261 C.3     
  33 F33           -8.6713     3.2447    -8.7085 F       
  34 F34           -8.6871     1.0137    -8.2169 F       
  35 H35           -0.7632    -1.7340     0.3078 H       
  36 H36           -1.6076     3.1027    -0.2652 H       
  37 H37           -6.1586     2.7456     0.3388 H       
  38 H38           -5.5492     4.2319    -0.4336 H       
  39 H39           -6.7002     1.7814    -1.8461 H       
  40 H40           -7.4546     3.3896    -1.7246 H       
  41 H41           -5.5331     4.3707    -2.9650 H       
  42 H42           -4.6440     1.4589    -3.1884 H       
  43 H43           -3.9015     2.8324    -4.0442 H       
  44 H44           -3.2772     3.8805    -1.9158 H       
  45 H45           -2.6714     2.2041    -1.9320 H       
  46 H46           -6.6467     5.0952    -4.8465 H       
  47 H47           -6.6862     0.9319    -3.9223 H       
  48 H48           -8.0583     0.5012    -5.9211 H       
  49 H49           -8.0227     4.6652    -6.8426 H       
  50 H50            0.0992     4.3081    -0.9664 H       
  51 H51            2.6770     5.6894    -2.4976 H       
  52 H52            1.9010     6.3243    -1.0269 H       
  53 H53            3.6036     5.8073    -0.9824 H       
  54 H54           -3.4676    -1.2631     1.6586 H       
  55 H55           -4.3016    -0.7079     0.1874 H       
  56 H56           -3.1830    -2.0903     0.1084 H       
  57 H57            2.1797     0.3115    -0.7217 H       
  58 H58            2.8107    -0.2474     1.5794 H       
  59 H59            1.2995    -1.2250     1.8276 H       
  60 H60            3.6769    -1.8380    -0.0717 H       
  61 H61            2.6147    -3.0227     0.8053 H       
  62 H62            0.6547    -2.3855    -0.5211 H       
  63 H63            1.8956    -1.8944    -1.7541 H       
  64 H64          -10.0229     2.3590    -7.4633 H       
@<TRIPOS>BOND
   1    1    2 ar
   2    1   21 1
   3    1    6 ar
   4    2    3 ar
   5    2   28 1
   6    3    4 ar
   7    3   35 1
   8    4    5 ar
   9    4   27 1
  10    5    6 ar
  11    5    7 1
  12    6   36 1
  13    7    8 2
  14    7    9 am
  15    9   10 1
  16    9   14 1
  17   10   11 1
  18   10   37 1
  19   10   38 1
  20   11   12 1
  21   11   39 1
  22   11   40 1
  23   12   13 1
  24   12   15 1
  25   12   41 1
  26   13   14 1
  27   13   42 1
  28   13   43 1
  29   14   44 1
  30   14   45 1
  31   15   16 ar
  32   15   17 ar
  33   16   20 ar
  34   16   46 1
  35   17   18 ar
  36   17   47 1
  37   18   19 ar
  38   18   48 1
  39   19   20 ar
  40   19   32 1
  41   20   49 1
  42   21   22 2
  43   21   25 1
  44   22   23 1
  45   23   24 2
  46   24   25 1
  47   24   26 1
  48   25   50 1
  49   26   51 1
  50   26   52 1
  51   26   53 1
  52   27   54 1
  53   27   55 1
  54   27   56 1
  55   28   29 1
  56   28   31 1
  57   28   57 1
  58   29   30 1
  59   29   58 1
  60   29   59 1
  61   30   31 1
  62   30   60 1
  63   30   61 1
  64   31   62 1
  65   31   63 1
  66   32   33 1
  67   32   34 1
  68   32   64 1

#	End of record

