#	Name: ASD00311004
#	Creating user name:	WinNT
#	Creation time:	15. 06. 2019 18:34

#	Modifying user name:	WinNT
#	Modification time:	15. 06. 2019 18:34

#	Program:	/corina/corina34_cracker 3.40 0067  02.08.2006

@<TRIPOS>MOLECULE
ASD00311004
  27   28    0    0    0
SMALL
NO_CHARGES


@<TRIPOS>ATOM
   1 C1            -0.0167     1.3813     0.0096 C.ar    
   2 C2             0.0021    -0.0041     0.0020 C.ar    
   3 C3             1.2196    -0.6674    -0.0131 C.ar    
   4 C4             2.3825     0.0856    -0.0202 C.ar    
   5 C5             2.2886     1.4762    -0.0118 C.ar    
   6 N6             1.1026     2.0722     0.0027 N.ar    
   7 C7             3.4341     3.7111    -0.0107 C.2     
   8 C8             3.5229     2.2962    -0.0192 C.2     
   9 C9             3.2172     6.5528     0.0066 C.ar    
  10 C10            4.4684     5.9264    -0.0087 C.ar    
  11 C11            4.5605     4.4594    -0.0175 C.2     
  12 C12            3.1394     7.9291     0.0143 C.ar    
  13 C13            4.2945     8.6922     0.0069 C.ar    
  14 C14            5.5364     8.0821    -0.0082 C.ar    
  15 C15            5.6327     6.7053    -0.0161 C.ar    
  16 O16            4.6129     1.7549    -0.0325 O.2     
  17 Cl17           7.1914     5.9414    -0.0345 Cl      
  18 H18           -0.9634     1.9010     0.0169 H       
  19 H19           -0.9227    -0.5619     0.0082 H       
  20 H20            1.2605    -1.7466    -0.0190 H       
  21 H21            3.3481    -0.3980    -0.0316 H       
  22 H22            2.4668     4.1914     0.0011 H       
  23 H23            2.3148     5.9595     0.0079 H       
  24 H24            5.5277     3.9791    -0.0292 H       
  25 H25            2.1743     8.4136     0.0257 H       
  26 H26            4.2259     9.7700     0.0126 H       
  27 H27            6.4326     8.6847    -0.0139 H       
@<TRIPOS>BOND
   1    1    2 ar
   2    1    6 ar
   3    1   18 1
   4    2    3 ar
   5    2   19 1
   6    3    4 ar
   7    3   20 1
   8    4    5 ar
   9    4   21 1
  10    5    6 ar
  11    5    8 1
  12    7    8 1
  13    7   11 2
  14    7   22 1
  15    8   16 2
  16    9   10 ar
  17    9   12 ar
  18    9   23 1
  19   10   11 1
  20   10   15 ar
  21   11   24 1
  22   12   13 ar
  23   12   25 1
  24   13   14 ar
  25   13   26 1
  26   14   15 ar
  27   14   27 1
  28   15   17 1

#	End of record

