#	Name: ASD09740595
#	Creating user name:	WinNT
#	Creation time:	15. 06. 2019 21:23

#	Modifying user name:	WinNT
#	Modification time:	15. 06. 2019 21:23

#	Program:	/corina/corina34_cracker 3.40 0067  02.08.2006

@<TRIPOS>MOLECULE
ASD09740595
  64   68    0    0    0
SMALL
NO_CHARGES


@<TRIPOS>ATOM
   1 N1            -0.0877     1.3324    -0.0177 N.2     
   2 C2            -0.1185     0.0237    -0.0596 C.2     
   3 C3             1.0837     1.8984     0.0652 C.2     
   4 S4             2.3292     0.6530     0.0965 S.3     
   5 C5             1.0841    -0.5899    -0.0112 C.2     
   6 C6             1.3282     3.3544     0.1227 C.ar    
   7 C7             0.2558     4.2425     0.0898 C.ar    
   8 C8             2.6358     3.8406     0.2161 C.ar    
   9 C9             2.8696     5.1977     0.2707 C.ar    
  10 C10            1.8091     6.0917     0.2337 C.ar    
  11 C11            0.4924     5.6151     0.1449 C.ar    
  12 O12            2.0451     7.4266     0.2886 O.3     
  13 C13            3.3963     7.8382     0.5046 C.3     
  14 C14            4.1362     7.8826    -0.8338 C.3     
  15 C15            3.4101     9.2294     1.1413 C.3     
  16 C16           -0.6039     6.5355     0.1062 C.1     
  17 N17           -1.4737     7.2656     0.0755 N.1     
  18 C18            1.3154    -2.0493    -0.0431 C.ar    
  19 C19            2.2433    -2.5914    -0.9371 C.ar    
  20 C20            2.4546    -3.9547    -0.9619 C.ar    
  21 C21            1.7474    -4.7800    -0.1015 C.ar    
  22 C22            0.8283    -4.2487     0.7843 C.ar    
  23 C23            0.6122    -2.8870     0.8230 C.ar    
  24 C24            3.1281    -1.9161    -1.9626 C.3     
  25 C25            4.2123    -2.9585    -2.3092 C.3     
  26 C26            3.4968    -4.2923    -2.0068 C.3     
  27 N27            2.8540    -4.8100    -3.2172 N.am    
  28 S28            3.3762    -6.2307    -3.8890 S.o2    
  29 O29            2.5565    -6.3972    -5.0378 O.2     
  30 O30            4.7823    -6.0651    -4.0100 O.2     
  31 C31            2.9885    -7.4903    -2.6425 C.3     
  32 C32            3.5297    -8.8235    -3.0904 C.ar    
  33 C33            4.8118    -9.2023    -2.7391 C.ar    
  34 C34            5.3083   -10.4253    -3.1500 C.ar    
  35 C35            4.5224   -11.2696    -3.9117 C.ar    
  36 C36            3.2398   -10.8912    -4.2623 C.ar    
  37 C37            2.7419    -9.6701    -3.8477 C.ar    
  38 H38           -1.0442    -0.5285    -0.1279 H       
  39 H39           -0.7553     3.8691     0.0215 H       
  40 H40            3.4656     3.1501     0.2460 H       
  41 H41            3.8820     5.5667     0.3427 H       
  42 H42            3.8902     7.1295     1.1694 H       
  43 H43            3.6423     8.5913    -1.4986 H       
  44 H44            5.1669     8.1966    -0.6690 H       
  45 H45            4.1264     6.8915    -1.2874 H       
  46 H46            2.8830     9.1978     2.0949 H       
  47 H47            4.4408     9.5434     1.3061 H       
  48 H48            2.9162     9.9381     0.4765 H       
  49 H49            1.9154    -5.8466    -0.1235 H       
  50 H50            0.2822    -4.9005     1.4502 H       
  51 H51           -0.1054    -2.4716     1.5150 H       
  52 H52            2.5506    -1.6612    -2.8512 H       
  53 H53            3.5848    -1.0220    -1.5381 H       
  54 H54            4.4874    -2.8963    -3.3621 H       
  55 H55            5.0872    -2.8347    -1.6709 H       
  56 H56            4.2054    -5.0208    -1.6128 H       
  57 H57            2.1225    -4.3207    -3.6251 H       
  58 H58            3.4450    -7.2136    -1.6921 H       
  59 H59            1.9076    -7.5595    -2.5199 H       
  60 H60            5.4259    -8.5427    -2.1439 H       
  61 H61            6.3103   -10.7209    -2.8761 H       
  62 H62            4.9105   -12.2248    -4.2333 H       
  63 H63            2.6259   -11.5507    -4.8577 H       
  64 H64            1.7399    -9.3745    -4.1216 H       
@<TRIPOS>BOND
   1    1    2 1
   2    1    3 2
   3    2    5 2
   4    2   38 1
   5    3    4 1
   6    3    6 1
   7    4    5 1
   8    5   18 1
   9    6    7 ar
  10    6    8 ar
  11    7   11 ar
  12    7   39 1
  13    8    9 ar
  14    8   40 1
  15    9   10 ar
  16    9   41 1
  17   10   11 ar
  18   10   12 1
  19   11   16 1
  20   12   13 1
  21   13   14 1
  22   13   15 1
  23   13   42 1
  24   14   43 1
  25   14   44 1
  26   14   45 1
  27   15   46 1
  28   15   47 1
  29   15   48 1
  30   16   17 3
  31   18   19 ar
  32   18   23 ar
  33   19   20 ar
  34   19   24 1
  35   20   21 ar
  36   20   26 1
  37   21   22 ar
  38   21   49 1
  39   22   23 ar
  40   22   50 1
  41   23   51 1
  42   24   25 1
  43   24   52 1
  44   24   53 1
  45   25   26 1
  46   25   54 1
  47   25   55 1
  48   26   27 1
  49   26   56 1
  50   27   28 am
  51   27   57 1
  52   28   29 2
  53   28   30 2
  54   28   31 1
  55   31   32 1
  56   31   58 1
  57   31   59 1
  58   32   33 ar
  59   32   37 ar
  60   33   34 ar
  61   33   60 1
  62   34   35 ar
  63   34   61 1
  64   35   36 ar
  65   35   62 1
  66   36   37 ar
  67   36   63 1
  68   37   64 1

#	End of record

