#	Name: ASD01813011
#	Creating user name:	WinNT
#	Creation time:	15. 06. 2019 19:29

#	Modifying user name:	WinNT
#	Modification time:	15. 06. 2019 19:29

#	Program:	/corina/corina34_cracker 3.40 0067  02.08.2006

@<TRIPOS>MOLECULE
ASD01813011
  48   51    0    0    0
SMALL
NO_CHARGES


@<TRIPOS>ATOM
   1 C1             0.8012     2.0544     0.7670 C.2     
   2 C2             0.5394     0.7196     0.5399 C.2     
   3 N3            -0.7114     0.2379     0.6939 N.pl3   
   4 C4            -1.7576     0.9854     1.0731 C.2     
   5 C5            -1.6296     2.3325     1.3370 C.2     
   6 C6            -0.2965     2.9419     1.1842 C.2     
   7 O7            -0.1095     4.1269     1.4009 O.2     
   8 C8            -0.9397    -1.1851     0.4310 C.3     
   9 C9            -0.8236    -1.9589     1.7189 C.ar    
  10 C10           -1.9425    -2.1615     2.5056 C.ar    
  11 C11           -1.8387    -2.8700     3.6868 C.ar    
  12 C12           -0.6103    -3.3789     4.0835 C.ar    
  13 C13            0.5109    -3.1745     3.2921 C.ar    
  14 C14            0.4006    -2.4697     2.1091 C.ar    
  15 C15            2.1523     2.5970     0.5924 C.2     
  16 C16            3.2902     1.6130     0.4128 C.3     
  17 C17            2.7924     0.5109    -0.5323 C.3     
  18 C18            1.6322    -0.2311     0.1249 C.3     
  19 O19            2.3521     3.7937     0.5915 O.2     
  20 O20           -0.5054    -4.0759     5.2453 O.3     
  21 C21           -1.6307    -4.2548     5.9857 C.ar    
  22 C22           -2.5648    -5.2099     5.6107 C.ar    
  23 C23           -3.7079    -5.3898     6.3651 C.ar    
  24 C24           -3.9218    -4.6191     7.4930 C.ar    
  25 C25           -2.9928    -3.6664     7.8687 C.ar    
  26 C26           -1.8450    -3.4867     7.1213 C.ar    
  27 C27           -2.7888     3.1377     1.7533 C.2     
  28 O28           -3.8806     2.6164     1.8692 O.2     
  29 O29           -2.6398     4.4532     2.0059 O.3     
  30 H30           -2.7268     0.5199     1.1743 H       
  31 H31           -1.9372    -1.3220     0.0135 H       
  32 H32           -0.1960    -1.5473    -0.2788 H       
  33 H33           -2.8984    -1.7652     2.1963 H       
  34 H34           -2.7129    -3.0275     4.3012 H       
  35 H35            1.4682    -3.5696     3.5986 H       
  36 H36            1.2729    -2.3107     1.4925 H       
  37 H37            4.1511     2.1173    -0.0260 H       
  38 H38            3.5629     1.1811     1.3757 H       
  39 H39            2.4552     0.9583    -1.4673 H       
  40 H40            3.6035    -0.1885    -0.7347 H       
  41 H41            1.9991    -0.7593     1.0050 H       
  42 H42            1.2260    -0.9553    -0.5812 H       
  43 H43           -2.3985    -5.8119     4.7296 H       
  44 H44           -4.4355    -6.1328     6.0734 H       
  45 H45           -4.8162    -4.7613     8.0814 H       
  46 H46           -3.1625    -3.0652     8.7497 H       
  47 H47           -1.1195    -2.7426     7.4153 H       
  48 H48           -3.4300     4.9405     2.2764 H       
@<TRIPOS>BOND
   1    1    2 2
   2    1   15 1
   3    1    6 1
   4    2    3 1
   5    2   18 1
   6    3    4 1
   7    3    8 1
   8    4    5 2
   9    4   30 1
  10    5    6 1
  11    5   27 1
  12    6    7 2
  13    8    9 1
  14    8   31 1
  15    8   32 1
  16    9   10 ar
  17    9   14 ar
  18   10   11 ar
  19   10   33 1
  20   11   12 ar
  21   11   34 1
  22   12   13 ar
  23   12   20 1
  24   13   14 ar
  25   13   35 1
  26   14   36 1
  27   15   16 1
  28   15   19 2
  29   16   17 1
  30   16   37 1
  31   16   38 1
  32   17   18 1
  33   17   39 1
  34   17   40 1
  35   18   41 1
  36   18   42 1
  37   20   21 1
  38   21   22 ar
  39   21   26 ar
  40   22   23 ar
  41   22   43 1
  42   23   24 ar
  43   23   44 1
  44   24   25 ar
  45   24   45 1
  46   25   26 ar
  47   25   46 1
  48   26   47 1
  49   27   28 2
  50   27   29 1
  51   29   48 1

#	End of record

