#	Name: ASD01140266
#	Creating user name:	WinNT
#	Creation time:	15. 06. 2019 19:00

#	Modifying user name:	WinNT
#	Modification time:	15. 06. 2019 19:00

#	Program:	/corina/corina34_cracker 3.40 0067  02.08.2006

@<TRIPOS>MOLECULE
ASD01140266
  37   40    0    0    0
SMALL
NO_CHARGES


@<TRIPOS>ATOM
   1 C1            -0.0169     1.3931     0.0097 C.ar    
   2 C2             0.0021    -0.0041     0.0020 C.ar    
   3 C3             1.2150    -0.6813    -0.0011 C.ar    
   4 C4             2.4238     0.0272     0.0038 C.ar    
   5 C5             2.3885     1.4241    -0.0124 C.ar    
   6 C6             1.1680     2.0938     0.0022 C.ar    
   7 C7             3.6699    -0.7453     0.0574 C.2     
   8 N8             4.7613    -0.5271    -0.5861 N.2     
   9 C9             4.8895     0.5847    -1.5352 C.3     
  10 C10            4.6742     1.8660    -0.7720 C.2     
  11 N11            3.5560     2.1895    -0.0767 N.pl3   
  12 C12           -1.2280    -0.7373    -0.0022 C.1     
  13 C13            3.7735     3.3976     0.5108 C.2     
  14 C14            3.6707    -1.9193     0.9635 C.ar    
  15 C15            5.5439     2.9045    -0.6397 C.2     
  16 N16            4.9535     3.8278     0.1647 N.2     
  17 C17            6.8773     3.0089    -1.2535 C.2     
  18 O18            7.6359     4.1016    -1.0356 O.3     
  19 O19            7.2946     2.1099    -1.9571 O.2     
  20 C20           -2.2364    -1.3384    -0.0056 C.1     
  21 C21            4.8146    -2.7063     1.0729 C.ar    
  22 C22            4.8006    -3.7996     1.9239 C.ar    
  23 C23            3.6420    -4.0683     2.6367 C.ar    
  24 C24            2.5413    -3.2431     2.4790 C.ar    
  25 N25            2.5834    -2.2079     1.6675 N.ar    
  26 H26           -0.9586     1.9218     0.0170 H       
  27 H27            1.2264    -1.7613    -0.0070 H       
  28 H28            1.1507     3.1737     0.0075 H       
  29 H29            5.8861     0.5806    -1.9767 H       
  30 H30            4.1373     0.4905    -2.3185 H       
  31 H31            3.0809     3.9153     1.1579 H       
  32 H32            8.5045     4.1248    -1.4600 H       
  33 H33           -3.1383    -1.8760    -0.0087 H       
  34 H34            5.7000    -2.4680     0.5022 H       
  35 H35            5.6722    -4.4286     2.0293 H       
  36 H36            3.5985    -4.9131     3.3080 H       
  37 H37            1.6372    -3.4494     3.0326 H       
@<TRIPOS>BOND
   1    1    2 ar
   2    1    6 ar
   3    1   26 1
   4    2    3 ar
   5    2   12 1
   6    3    4 ar
   7    3   27 1
   8    4    5 ar
   9    4    7 1
  10    5    6 ar
  11    5   11 1
  12    6   28 1
  13    7    8 2
  14    7   14 1
  15    8    9 1
  16    9   10 1
  17    9   29 1
  18    9   30 1
  19   10   11 1
  20   10   15 2
  21   11   13 1
  22   12   20 3
  23   13   16 2
  24   13   31 1
  25   14   21 ar
  26   14   25 ar
  27   15   16 1
  28   15   17 1
  29   17   18 1
  30   17   19 2
  31   18   32 1
  32   20   33 1
  33   21   22 ar
  34   21   34 1
  35   22   23 ar
  36   22   35 1
  37   23   24 ar
  38   23   36 1
  39   24   25 ar
  40   24   37 1

#	End of record

