#	Name: ASD01911082
#	Creating user name:	WinNT
#	Creation time:	15. 06. 2019 19:57

#	Modifying user name:	WinNT
#	Modification time:	15. 06. 2019 19:57

#	Program:	/corina/corina34_cracker 3.40 0067  02.08.2006

@<TRIPOS>MOLECULE
ASD01911082
  48   51    0    0    0
SMALL
NO_CHARGES


@<TRIPOS>ATOM
   1 C1            -1.2726     1.9549    -0.5043 C.3     
   2 C2            -0.9102     0.4987    -0.6421 C.2     
   3 N3            -1.3547    -0.3340    -1.5524 N.2     
   4 C4            -0.7641    -1.5122    -1.2846 C.2     
   5 N5            -0.0046    -1.3393    -0.2445 N.2     
   6 O6            -0.0698    -0.1895     0.1365 O.3     
   7 C7            -0.9494    -2.7972    -2.0498 C.3     
   8 C8             0.3986    -3.2574    -2.6095 C.3     
   9 C9             0.2060    -4.5447    -3.4144 C.3     
  10 C10           -0.3351    -5.6423    -2.4928 C.3     
  11 N11           -1.5556    -5.1514    -1.8386 N.am    
  12 C12           -1.5036    -3.8750    -1.1128 C.3     
  13 C13           -2.7012    -5.8585    -1.9030 C.2     
  14 O14           -3.6857    -5.4769    -1.3006 O.2     
  15 C15           -2.7604    -7.0972    -2.7058 C.ar    
  16 C16           -1.7879    -8.0858    -2.5416 C.ar    
  17 C17           -1.8479    -9.2396    -3.2932 C.ar    
  18 C18           -2.8715    -9.4197    -4.2110 C.ar    
  19 C19           -3.8395    -8.4411    -4.3784 C.ar    
  20 C20           -3.7924    -7.2862    -3.6275 C.ar    
  21 F21           -2.9257   -10.5525    -4.9452 F       
  22 C22           -0.1259     2.8058    -0.9861 C.ar    
  23 C23           -0.1599     3.3585    -2.2528 C.ar    
  24 C24            0.8919     4.1389    -2.6948 C.ar    
  25 C25            1.9776     4.3671    -1.8700 C.ar    
  26 C26            2.0111     3.8151    -0.6030 C.ar    
  27 C27            0.9573     3.0382    -0.1594 C.ar    
  28 O28           -1.5419     2.2510     0.8675 O.3     
  29 H29           -2.1588     2.1670    -1.1025 H       
  30 H30           -1.6477    -2.6342    -2.8708 H       
  31 H31            0.8067    -2.4817    -3.2574 H       
  32 H32            1.0889    -3.4434    -1.7867 H       
  33 H33           -0.5033    -4.3658    -4.2225 H       
  34 H34            1.1624    -4.8591    -3.8321 H       
  35 H35           -0.5673    -6.5308    -3.0800 H       
  36 H36            0.4118    -5.8860    -1.7372 H       
  37 H37           -0.8520    -3.9746    -0.2447 H       
  38 H38           -2.5068    -3.5974    -0.7894 H       
  39 H39           -0.9900    -7.9464    -1.8272 H       
  40 H40           -1.0961   -10.0047    -3.1673 H       
  41 H41           -4.6344    -8.5862    -5.0949 H       
  42 H42           -4.5471    -6.5247    -3.7583 H       
  43 H43           -1.0081     3.1802    -2.8971 H       
  44 H44            0.8657     4.5701    -3.6846 H       
  45 H45            2.7997     4.9762    -2.2156 H       
  46 H46            2.8595     3.9931     0.0412 H       
  47 H47            0.9835     2.6070     0.8304 H       
  48 H48           -0.7954     2.0855     1.4595 H       
@<TRIPOS>BOND
   1    1    2 1
   2    1   22 1
   3    1   28 1
   4    1   29 1
   5    2    3 2
   6    2    6 1
   7    3    4 1
   8    4    5 2
   9    4    7 1
  10    5    6 1
  11    7    8 1
  12    7   12 1
  13    7   30 1
  14    8    9 1
  15    8   31 1
  16    8   32 1
  17    9   10 1
  18    9   33 1
  19    9   34 1
  20   10   11 1
  21   10   35 1
  22   10   36 1
  23   11   12 1
  24   11   13 am
  25   12   37 1
  26   12   38 1
  27   13   14 2
  28   13   15 1
  29   15   16 ar
  30   15   20 ar
  31   16   17 ar
  32   16   39 1
  33   17   18 ar
  34   17   40 1
  35   18   19 ar
  36   18   21 1
  37   19   20 ar
  38   19   41 1
  39   20   42 1
  40   22   23 ar
  41   22   27 ar
  42   23   24 ar
  43   23   43 1
  44   24   25 ar
  45   24   44 1
  46   25   26 ar
  47   25   45 1
  48   26   27 ar
  49   26   46 1
  50   27   47 1
  51   28   48 1

#	End of record

