#	Name: ASD00170673
#	Creating user name:	WinNT
#	Creation time:	15. 06. 2019 18:32

#	Modifying user name:	WinNT
#	Modification time:	15. 06. 2019 18:32

#	Program:	/corina/corina34_cracker 3.40 0067  02.08.2006

@<TRIPOS>MOLECULE
ASD00170673
  50   52    0    0    0
SMALL
NO_CHARGES


@<TRIPOS>ATOM
   1 Cl1            2.7962     4.9790    -5.1078 Cl      
   2 C2             1.9618     5.2687    -3.6133 C.ar    
   3 C3             2.5129     4.8324    -2.4198 C.ar    
   4 C4             1.8549     5.0600    -1.2295 C.ar    
   5 C5             0.6311     5.7317    -1.2290 C.ar    
   6 C6             0.0806     6.1691    -2.4351 C.ar    
   7 C7             0.7504     5.9403    -3.6186 C.ar    
   8 C8            -0.0797     5.9785     0.0441 C.2     
   9 O9             0.3494     5.5082     1.0821 O.2     
  10 C10           -1.2983     6.7875     0.0565 C.2     
  11 C11           -2.5520     6.2579    -0.0871 C.2     
  12 N12           -2.8229     4.9160    -0.2622 N.pl3   
  13 S13           -3.7302     7.4827    -0.0190 S.3     
  14 C14           -2.5285     8.7468     0.2153 C.2     
  15 C15           -1.2950     8.2363     0.2293 C.2     
  16 C16           -0.0041     9.0254     0.3638 C.3     
  17 C17           -0.2329    10.3135     1.1486 C.3     
  18 N18           -0.7423    11.3426     0.2313 N.am    
  19 C19           -1.9870    11.0782    -0.4922 C.3     
  20 C20           -2.8749    10.2084     0.4022 C.3     
  21 C21           -0.0788    12.5033     0.0605 C.2     
  22 O22            0.9530    12.7084     0.6685 O.2     
  23 O23           -0.5594    13.4355    -0.7838 O.3     
  24 C24            0.2073    14.6612    -0.9181 C.3     
  25 C25            1.6120    14.3310    -1.4267 C.3     
  26 C26           -0.4894    15.5922    -1.9125 C.3     
  27 C27            0.3072    15.3520     0.4434 C.3     
  28 H28            3.4596     4.3126    -2.4215 H       
  29 H29            2.2854     4.7191    -0.2995 H       
  30 H30           -0.8660     6.6889    -2.4409 H       
  31 H31            0.3256     6.2782    -4.5523 H       
  32 H32           -2.0946     4.2838    -0.3663 H       
  33 H33           -3.7415     4.6051    -0.2810 H       
  34 H34            0.7358     8.4162     0.8829 H       
  35 H35            0.3698     9.2728    -0.6297 H       
  36 H36           -0.9621    10.1352     1.9389 H       
  37 H37            0.7083    10.6471     1.5857 H       
  38 H38           -2.4928    12.0187    -0.7110 H       
  39 H39           -1.7683    10.5520    -1.4213 H       
  40 H40           -3.9201    10.3668     0.1364 H       
  41 H41           -2.7235    10.4900     1.4443 H       
  42 H42            1.5409    13.8388    -2.3966 H       
  43 H43            2.1876    15.2511    -1.5275 H       
  44 H44            2.1083    13.6677    -0.7182 H       
  45 H45           -1.4901    15.8274    -1.5502 H       
  46 H46            0.0862    16.5123    -2.0133 H       
  47 H47           -0.5605    15.1000    -2.8825 H       
  48 H48            0.8035    14.6888     1.1518 H       
  49 H49            0.8827    16.2722     0.3426 H       
  50 H50           -0.6936    15.5873     0.8057 H       
@<TRIPOS>BOND
   1    1    2 1
   2    2    3 ar
   3    2    7 ar
   4    3    4 ar
   5    3   28 1
   6    4    5 ar
   7    4   29 1
   8    5    6 ar
   9    5    8 1
  10    6    7 ar
  11    6   30 1
  12    7   31 1
  13    8    9 2
  14    8   10 1
  15   10   11 2
  16   10   15 1
  17   11   12 1
  18   11   13 1
  19   12   32 1
  20   12   33 1
  21   13   14 1
  22   14   15 2
  23   14   20 1
  24   15   16 1
  25   16   17 1
  26   16   34 1
  27   16   35 1
  28   17   18 1
  29   17   36 1
  30   17   37 1
  31   18   19 1
  32   18   21 am
  33   19   20 1
  34   19   38 1
  35   19   39 1
  36   20   40 1
  37   20   41 1
  38   21   22 2
  39   21   23 1
  40   23   24 1
  41   24   25 1
  42   24   26 1
  43   24   27 1
  44   25   42 1
  45   25   43 1
  46   25   44 1
  47   26   45 1
  48   26   46 1
  49   26   47 1
  50   27   48 1
  51   27   49 1
  52   27   50 1

#	End of record

