#	Name: ASD02038742
#	Creating user name:	WinNT
#	Creation time:	15. 06. 2019 20:17

#	Modifying user name:	WinNT
#	Modification time:	15. 06. 2019 20:17

#	Program:	/corina/corina34_cracker 3.40 0067  02.08.2006

@<TRIPOS>MOLECULE
ASD02038742
  53   55    0    0    0
SMALL
NO_CHARGES


@<TRIPOS>ATOM
   1 C1            -0.0284     1.4659    -0.0539 C.2     
   2 C2            -0.0024    -0.0070    -0.0317 C.2     
   3 N3             1.1729    -0.6615    -0.1139 N.am    
   4 C4             1.2106    -2.1195     0.0245 C.3     
   5 C5             1.0486    -2.7572    -1.3313 C.ar    
   6 C6             2.4127     0.0850    -0.3418 C.3     
   7 C7             2.9782     0.5560     0.9996 C.3     
   8 C8             4.2730     1.3356     0.7617 C.3     
   9 O9            -1.0415    -0.6322     0.0608 O.2     
  10 N10            1.0521     2.2878    -0.0470 N.2     
  11 C11            0.6417     3.5228    -0.0724 C.2     
  12 N12           -0.7164     3.5373    -0.0965 N.pl3   
  13 C13           -1.1425     2.2523    -0.0911 C.2     
  14 C14           -1.5673     4.7294    -0.1291 C.3     
  15 C15            2.1618    -3.0328    -2.1019 C.ar    
  16 C16            4.7742     1.9138     2.0886 C.3     
  17 C17            6.1098     2.6246     1.8546 C.3     
  18 O18            7.0471     1.7023     1.2952 O.3     
  19 C19            6.6535     1.1650     0.0309 C.3     
  20 C20            5.3397     0.3956     0.1917 C.3     
  21 C21           -0.2133    -3.0711    -1.8005 C.ar    
  22 C22           -0.3653    -3.6563    -3.0442 C.ar    
  23 C23            0.7440    -3.9287    -3.8208 C.ar    
  24 C24            2.0120    -3.6197    -3.3497 C.ar    
  25 O25            3.1050    -3.8863    -4.1121 O.3     
  26 C26            2.8750    -4.4856    -5.3888 C.3     
  27 F27            2.0735    -3.6400    -6.1633 F       
  28 F28            4.0986    -4.6897    -6.0354 F       
  29 F29            2.2275    -5.7139    -5.2175 F       
  30 H30            2.1661    -2.4189     0.4551 H       
  31 H31            0.4003    -2.4435     0.6776 H       
  32 H32            3.1393    -0.5598    -0.8362 H       
  33 H33            2.2056     0.9495    -0.9725 H       
  34 H34            2.2516     1.2007     1.4940 H       
  35 H35            3.1853    -0.3086     1.6303 H       
  36 H36            4.0862     2.1466     0.0578 H       
  37 H37            1.2783     4.3953    -0.0737 H       
  38 H38           -2.1682     1.9145    -0.1058 H       
  39 H39           -1.7606     5.0097    -1.1646 H       
  40 H40           -2.5115     4.5157     0.3718 H       
  41 H41           -1.0628     5.5499     0.3812 H       
  42 H42            3.1477    -2.7910    -1.7331 H       
  43 H43            4.0450     2.6265     2.4739 H       
  44 H44            4.9121     1.1071     2.8085 H       
  45 H45            5.9630     3.4564     1.1656 H       
  46 H46            6.4923     3.0012     2.8032 H       
  47 H47            6.5138     1.9777    -0.6819 H       
  48 H48            7.4276     0.4901    -0.3341 H       
  49 H49            5.4891    -0.4418     0.8733 H       
  50 H50            5.0150     0.0224    -0.7796 H       
  51 H51           -1.0819    -2.8592    -1.1946 H       
  52 H52           -1.3521    -3.9010    -3.4084 H       
  53 H53            0.6248    -4.3858    -4.7920 H       
@<TRIPOS>BOND
   1    1    2 1
   2    1   10 1
   3    1   13 2
   4    2    3 am
   5    2    9 2
   6    3    4 1
   7    3    6 1
   8    4    5 1
   9    4   30 1
  10    4   31 1
  11    5   15 ar
  12    5   21 ar
  13    6    7 1
  14    6   32 1
  15    6   33 1
  16    7    8 1
  17    7   34 1
  18    7   35 1
  19    8   16 1
  20    8   20 1
  21    8   36 1
  22   10   11 2
  23   11   12 1
  24   11   37 1
  25   12   13 1
  26   12   14 1
  27   13   38 1
  28   14   39 1
  29   14   40 1
  30   14   41 1
  31   15   24 ar
  32   15   42 1
  33   16   17 1
  34   16   43 1
  35   16   44 1
  36   17   18 1
  37   17   45 1
  38   17   46 1
  39   18   19 1
  40   19   20 1
  41   19   47 1
  42   19   48 1
  43   20   49 1
  44   20   50 1
  45   21   22 ar
  46   21   51 1
  47   22   23 ar
  48   22   52 1
  49   23   24 ar
  50   23   53 1
  51   24   25 1
  52   25   26 1
  53   26   27 1
  54   26   28 1
  55   26   29 1

#	End of record

