#	Name: ASD02039087
#	Creating user name:	WinNT
#	Creation time:	15. 06. 2019 20:17

#	Modifying user name:	WinNT
#	Modification time:	15. 06. 2019 20:17

#	Program:	/corina/corina34_cracker 3.40 0067  02.08.2006

@<TRIPOS>MOLECULE
ASD02039087
  46   49    0    0    0
SMALL
NO_CHARGES


@<TRIPOS>ATOM
   1 N1            -0.6920     1.0649    -1.3585 N.2     
   2 N2            -0.5231    -0.1775    -1.0703 N.2     
   3 C3             0.3350     1.7542    -0.9244 C.2     
   4 O4             1.1796     0.8856    -0.3378 O.3     
   5 C5             0.6081    -0.3297    -0.4463 C.2     
   6 N6             0.5171     3.1199    -1.0468 N.pl3   
   7 C7            -0.5058     3.9182    -1.5726 C.ar    
   8 C8             1.1763    -1.6293     0.0627 C.3     
   9 O9             0.1503    -2.3703     0.7263 O.3     
  10 C10            1.7154    -2.4457    -1.1136 C.3     
  11 C11            0.5480    -3.2759     1.6592 C.ar    
  12 C12            1.8933    -3.5239     1.8460 C.ar    
  13 C13           -0.4033    -3.9445     2.4256 C.ar    
  14 C14           -0.0187    -4.8646     3.3759 C.ar    
  15 C15            1.3309    -5.1333     3.5766 C.ar    
  16 C16            2.2961    -4.4562     2.8074 C.ar    
  17 C17           -1.8341     3.5720    -1.3635 C.ar    
  18 C18           -0.1924     5.0599    -2.2988 C.ar    
  19 C19           -1.2016     5.8476    -2.8166 C.ar    
  20 C20           -2.5284     5.4993    -2.6118 C.ar    
  21 C21           -2.8431     4.3610    -1.8826 C.ar    
  22 N22            1.7364    -6.0521     4.5234 N.am    
  23 C23            3.0405    -6.3139     4.7190 C.2     
  24 C24            4.0465    -5.6658     3.9709 C.2     
  25 C25            3.7135    -4.7492     3.0288 C.2     
  26 O26            3.3621    -7.1314     5.5640 O.2     
  27 Cl27          -4.5041     3.9254    -1.6272 Cl      
  28 O28           -3.5216     6.2760    -3.1219 O.3     
  29 C29           -3.1256     7.4353    -3.8576 C.3     
  30 F30           -2.3757     8.2787    -3.0309 F       
  31 F31           -2.3498     7.0482    -4.9556 F       
  32 H32            1.3535     3.5246    -0.7683 H       
  33 H33            1.9858    -1.4225     0.7628 H       
  34 H34            2.4980    -1.8806    -1.6198 H       
  35 H35            2.1264    -3.3858    -0.7454 H       
  36 H36            0.9059    -2.6525    -1.8136 H       
  37 H37            2.6297    -3.0016     1.2533 H       
  38 H38           -1.4527    -3.7394     2.2736 H       
  39 H39           -0.7650    -5.3768     3.9651 H       
  40 H40           -2.0787     2.6865    -0.7957 H       
  41 H41            0.8406     5.3318    -2.4583 H       
  42 H42           -0.9576     6.7355    -3.3810 H       
  43 H43            1.0709    -6.5153     5.0557 H       
  44 H44            5.0856    -5.8979     4.1522 H       
  45 H45            4.4770    -4.2488     2.4517 H       
  46 H46           -4.0122     7.9639    -4.2076 H       
@<TRIPOS>BOND
   1    1    2 1
   2    1    3 2
   3    2    5 2
   4    3    4 1
   5    3    6 1
   6    4    5 1
   7    5    8 1
   8    6    7 1
   9    6   32 1
  10    7   17 ar
  11    7   18 ar
  12    8    9 1
  13    8   10 1
  14    8   33 1
  15    9   11 1
  16   10   34 1
  17   10   35 1
  18   10   36 1
  19   11   12 ar
  20   11   13 ar
  21   12   16 ar
  22   12   37 1
  23   13   14 ar
  24   13   38 1
  25   14   15 ar
  26   14   39 1
  27   15   16 ar
  28   15   22 1
  29   16   25 1
  30   17   21 ar
  31   17   40 1
  32   18   19 ar
  33   18   41 1
  34   19   20 ar
  35   19   42 1
  36   20   21 ar
  37   20   28 1
  38   21   27 1
  39   22   23 am
  40   22   43 1
  41   23   24 1
  42   23   26 2
  43   24   25 2
  44   24   44 1
  45   25   45 1
  46   28   29 1
  47   29   30 1
  48   29   31 1
  49   29   46 1

#	End of record

