#	Name: ASD01811049
#	Creating user name:	WinNT
#	Creation time:	15. 06. 2019 19:25

#	Modifying user name:	WinNT
#	Modification time:	15. 06. 2019 19:25

#	Program:	/corina/corina34_cracker 3.40 0067  02.08.2006

@<TRIPOS>MOLECULE
ASD01811049
  55   58    0    0    0
SMALL
NO_CHARGES


@<TRIPOS>ATOM
   1 C1            -0.0169     1.3972     0.0097 C.2     
   2 C2             0.0021    -0.0041     0.0020 C.2     
   3 C3             1.1986    -0.6593    -0.0130 C.2     
   4 C4             2.3918     0.0821    -0.0204 C.2     
   5 N5             2.3437     1.4497    -0.0116 N.am    
   6 C6             1.1421     2.0936     0.0024 C.2     
   7 C7             3.4812     2.1736    -0.0181 C.2     
   8 C8             3.6227    -0.5889    -0.0357 C.2     
   9 C9             4.7345     1.5280    -0.0345 C.2     
  10 C10            5.9702     2.3140    -0.0408 C.2     
  11 C11            4.7877     0.1218    -0.0426 C.2     
  12 O12            3.4258     3.3917    -0.0101 O.2     
  13 O13            5.9124     3.6617    -0.0309 O.3     
  14 O14            7.0487     1.7516    -0.0549 O.2     
  15 C15            3.6594    -2.0954    -0.0441 C.3     
  16 N16            3.7788    -2.5746    -1.4276 N.3     
  17 C17            4.0548    -4.0165    -1.4631 C.3     
  18 C18            4.8038    -1.8195    -2.1595 C.3     
  19 C19            4.7995    -2.2442    -3.6297 C.3     
  20 C20            5.0817    -3.7463    -3.7229 C.3     
  21 C21            4.0282    -4.5067    -2.9126 C.3     
  22 C22            5.0196    -4.1819    -5.1642 C.ar    
  23 N23            4.4703    -3.3876    -6.0620 N.ar    
  24 C24            4.3938    -3.7271    -7.3341 C.ar    
  25 C25            4.8915    -4.9390    -7.7734 C.ar    
  26 C26            5.4765    -5.8010    -6.8582 C.ar    
  27 C27            5.5442    -5.4071    -5.5308 C.ar    
  28 C28            6.0306    -7.1319    -7.2971 C.3     
  29 C29            7.5009    -6.9685    -7.6875 C.3     
  30 C30            6.4198    -4.0301    -3.1791 C.1     
  31 N31            7.4525    -4.2491    -2.7595 N.1     
  32 H32           -0.9605     1.9226     0.0170 H       
  33 H33           -0.9233    -0.5609     0.0082 H       
  34 H34            1.2282    -1.7389    -0.0187 H       
  35 H35            1.1156     3.1733     0.0093 H       
  36 H36            5.7393    -0.3889    -0.0551 H       
  37 H37            6.7544     4.1373    -0.0356 H       
  38 H38            4.5153    -2.4413     0.5353 H       
  39 H39            2.7413    -2.4836     0.3969 H       
  40 H40            5.0376    -4.2088    -1.0327 H       
  41 H41            3.2961    -4.5458    -0.8867 H       
  42 H42            4.5890    -0.7532    -2.0888 H       
  43 H43            5.7830    -2.0221    -1.7257 H       
  44 H44            3.8249    -2.0291    -4.0678 H       
  45 H45            5.5710    -1.6949    -4.1694 H       
  46 H46            4.2486    -5.5738    -2.9399 H       
  47 H47            3.0415    -4.3272    -3.3394 H       
  48 H48            3.9367    -3.0501    -8.0406 H       
  49 H49            4.8253    -5.2116    -8.8164 H       
  50 H50            5.9933    -6.0531    -4.7909 H       
  51 H51            5.9494    -7.8471    -6.4786 H       
  52 H52            5.4652    -7.4958    -8.1550 H       
  53 H53            7.5822    -6.2533    -8.5061 H       
  54 H54            8.0664    -6.6046    -6.8296 H       
  55 H55            7.9017    -7.9311    -8.0050 H       
@<TRIPOS>BOND
   1    1    2 1
   2    1    6 2
   3    1   32 1
   4    2    3 2
   5    2   33 1
   6    3    4 1
   7    3   34 1
   8    4    5 1
   9    4    8 2
  10    5    6 1
  11    5    7 am
  12    6   35 1
  13    7    9 1
  14    7   12 2
  15    8   15 1
  16    8   11 1
  17    9   10 1
  18    9   11 2
  19   10   13 1
  20   10   14 2
  21   11   36 1
  22   13   37 1
  23   15   16 1
  24   15   38 1
  25   15   39 1
  26   16   17 1
  27   16   18 1
  28   17   21 1
  29   17   40 1
  30   17   41 1
  31   18   19 1
  32   18   42 1
  33   18   43 1
  34   19   20 1
  35   19   44 1
  36   19   45 1
  37   20   21 1
  38   20   22 1
  39   20   30 1
  40   21   46 1
  41   21   47 1
  42   22   23 ar
  43   22   27 ar
  44   23   24 ar
  45   24   25 ar
  46   24   48 1
  47   25   26 ar
  48   25   49 1
  49   26   27 ar
  50   26   28 1
  51   27   50 1
  52   28   29 1
  53   28   51 1
  54   28   52 1
  55   29   53 1
  56   29   54 1
  57   29   55 1
  58   30   31 3

#	End of record

