#	Name: ASD01913743
#	Creating user name:	WinNT
#	Creation time:	15. 06. 2019 20:02

#	Modifying user name:	WinNT
#	Modification time:	15. 06. 2019 20:02

#	Program:	/corina/corina34_cracker 3.40 0067  02.08.2006

@<TRIPOS>MOLECULE
ASD01913743
  51   52    0    0    0
SMALL
NO_CHARGES


@<TRIPOS>ATOM
   1 O1            -0.0163     1.3508     0.0095 O.3     
   2 C2             0.0021    -0.0041     0.0020 C.ar    
   3 C3            -1.1990    -0.7061     0.0097 C.ar    
   4 C4            -1.1741    -2.0858     0.0021 C.ar    
   5 C5             0.0719    -2.7294    -0.0133 C.ar    
   6 C6             1.2332    -1.9554    -0.0202 C.ar    
   7 N7             1.1631    -0.6409    -0.0179 N.ar    
   8 C8             0.1537    -4.2032    -0.0215 C.2     
   9 N9             1.3564    -4.8113    -0.0363 N.am    
  10 O10           -0.8638    -4.8687    -0.0150 O.2     
  11 C11            1.2480     2.0168     0.0010 C.3     
  12 C12            1.0303     3.5080     0.0111 C.ar    
  13 C13            2.1183     4.3680     0.0053 C.ar    
  14 C14            1.9161     5.7404     0.0146 C.ar    
  15 C15            0.6318     6.2485     0.0297 C.ar    
  16 C16           -0.4537     5.3887     0.0354 C.ar    
  17 C17           -0.2534     4.0190     0.0204 C.ar    
  18 C18            1.4377    -6.2740    -0.0444 C.3     
  19 O19            3.3818     3.8665    -0.0091 O.3     
  20 C20            4.4545     4.8106    -0.0143 C.3     
  21 F21           -1.7093     5.8870     0.0501 F       
  22 C22            2.7653    -6.7076    -0.6692 C.3     
  23 C23            3.9248    -6.1370     0.1499 C.3     
  24 C24            2.8501    -8.2352    -0.6777 C.3     
  25 C25            2.8486    -6.1842    -2.1044 C.3     
  26 C26            1.3544    -6.7974     1.3909 C.3     
  27 H27           -2.1406    -0.1771     0.0219 H       
  28 H28           -2.0913    -2.6559     0.0081 H       
  29 H29            2.1986    -2.4396    -0.0317 H       
  30 H30            2.1682    -4.2804    -0.0415 H       
  31 H31            1.8174     1.7268     0.8840 H       
  32 H32            1.8004     1.7363    -0.8958 H       
  33 H33            2.7625     6.4112     0.0105 H       
  34 H34            0.4741     7.3169     0.0373 H       
  35 H35           -1.1009     3.3495     0.0248 H       
  36 H36            0.6116    -6.6806    -0.6279 H       
  37 H37            4.3794     5.4409    -0.9004 H       
  38 H38            4.3961     5.4319     0.8795 H       
  39 H39            5.4061     4.2793    -0.0259 H       
  40 H40            3.8655    -6.5099     1.1724 H       
  41 H41            4.8706    -6.4459    -0.2952 H       
  42 H42            3.8644    -5.0487     0.1559 H       
  43 H43            2.0240    -8.6418    -1.2612 H       
  44 H44            3.7959    -8.5441    -1.1228 H       
  45 H45            2.7908    -8.6081     0.3448 H       
  46 H46            2.7881    -5.0959    -2.0984 H       
  47 H47            3.7944    -6.4931    -2.5495 H       
  48 H48            2.0225    -6.5907    -2.6879 H       
  49 H49            2.1804    -6.3909     1.9744 H       
  50 H50            0.4086    -6.4886     1.8360 H       
  51 H51            1.4148    -7.8858     1.3848 H       
@<TRIPOS>BOND
   1    1    2 1
   2    1   11 1
   3    2    3 ar
   4    2    7 ar
   5    3    4 ar
   6    3   27 1
   7    4    5 ar
   8    4   28 1
   9    5    6 ar
  10    5    8 1
  11    6    7 ar
  12    6   29 1
  13    8    9 am
  14    8   10 2
  15    9   18 1
  16    9   30 1
  17   11   12 1
  18   11   31 1
  19   11   32 1
  20   12   13 ar
  21   12   17 ar
  22   13   14 ar
  23   13   19 1
  24   14   15 ar
  25   14   33 1
  26   15   16 ar
  27   15   34 1
  28   16   17 ar
  29   16   21 1
  30   17   35 1
  31   18   22 1
  32   18   26 1
  33   18   36 1
  34   19   20 1
  35   20   37 1
  36   20   38 1
  37   20   39 1
  38   22   23 1
  39   22   24 1
  40   22   25 1
  41   23   40 1
  42   23   41 1
  43   23   42 1
  44   24   43 1
  45   24   44 1
  46   24   45 1
  47   25   46 1
  48   25   47 1
  49   25   48 1
  50   26   49 1
  51   26   50 1
  52   26   51 1

#	End of record

