#	Name: ASD01811684
#	Creating user name:	WinNT
#	Creation time:	15. 06. 2019 19:27

#	Modifying user name:	WinNT
#	Modification time:	15. 06. 2019 19:27

#	Program:	/corina/corina34_cracker 3.40 0067  02.08.2006

@<TRIPOS>MOLECULE
ASD01811684
  58   62    0    0    0
SMALL
NO_CHARGES


@<TRIPOS>ATOM
   1 C1            -0.6690     1.5144    -0.0802 C.ar    
   2 C2            -0.3915     0.1503    -0.0783 C.ar    
   3 C3            -1.4256    -0.7701     0.0447 C.ar    
   4 C4            -2.7279    -0.3394     0.1657 C.ar    
   5 C5            -3.0127     1.0292     0.1649 C.ar    
   6 C6            -1.9664     1.9494     0.0455 C.ar    
   7 C7            -4.2763     1.7785     0.2753 C.2     
   8 N8            -4.0416     3.1009     0.2236 N.am    
   9 C9            -2.5979     3.3189     0.0781 C.3     
  10 Cl10           0.6226     2.6642    -0.2338 Cl      
  11 C11           -1.1203    -2.2458     0.0451 C.3     
  12 C12           -1.0476    -2.7442    -1.3752 C.ar    
  13 C13            0.1763    -2.8371    -2.0120 C.ar    
  14 C14            0.2461    -3.2931    -3.3139 C.ar    
  15 C15           -0.9142    -3.6588    -3.9830 C.ar    
  16 C16           -2.1415    -3.5648    -3.3408 C.ar    
  17 C17           -2.2043    -3.1130    -2.0371 C.ar    
  18 N18           -0.8467    -4.1215    -5.3046 N.pl3   
  19 C19           -1.8945    -4.5080    -6.0670 C.2     
  20 C20           -1.4096    -4.8838    -7.2731 C.2     
  21 C21           -0.0200    -4.7221    -7.2481 C.2     
  22 N22            0.3176    -4.2597    -6.0712 N.2     
  23 O23           -5.3753     1.2725     0.3956 O.2     
  24 C24           -5.0594     4.1516     0.3029 C.3     
  25 C25           -5.8029     4.0420     1.6356 C.3     
  26 C26           -6.8658     5.1394     1.7184 C.3     
  27 C27           -7.8585     4.9759     0.5657 C.3     
  28 C28           -7.1150     5.0855    -0.7670 C.3     
  29 C29           -6.0521     3.9882    -0.8498 C.3     
  30 O30           -4.8757     4.1946     2.7122 O.3     
  31 O31            0.8899    -0.2812    -0.1972 O.3     
  32 C32            1.6551    -0.3807     1.0055 C.3     
  33 H33           -3.5284    -1.0581     0.2607 H       
  34 H34           -2.2174     3.8874     0.9267 H       
  35 H35           -2.3908     3.8487    -0.8517 H       
  36 H36           -0.1648    -2.4191     0.5403 H       
  37 H37           -1.9075    -2.7795     0.5776 H       
  38 H38            1.0785    -2.5525    -1.4911 H       
  39 H39            1.2022    -3.3648    -3.8111 H       
  40 H40           -3.0458    -3.8482    -3.8588 H       
  41 H41           -3.1587    -3.0397    -1.5370 H       
  42 H42           -2.9319    -4.5160    -5.7669 H       
  43 H43           -1.9923    -5.2448    -8.1077 H       
  44 H44            0.6570    -4.9374    -8.0616 H       
  45 H45           -4.5798     5.1280     0.2337 H       
  46 H46           -6.2825     3.0656     1.7048 H       
  47 H47           -7.3955     5.0613     2.6679 H       
  48 H48           -6.3862     6.1157     1.6492 H       
  49 H49           -8.3381     3.9995     0.6349 H       
  50 H50           -8.6157     5.7577     0.6247 H       
  51 H51           -7.8222     4.9691    -1.5883 H       
  52 H52           -6.6354     6.0619    -0.8363 H       
  53 H53           -5.5224     4.0663    -1.7993 H       
  54 H54           -6.5317     3.0118    -0.7806 H       
  55 H55           -5.2785     4.1362     3.5894 H       
  56 H56            2.6799    -0.6611     0.7620 H       
  57 H57            1.6537     0.5814     1.5177 H       
  58 H58            1.2155    -1.1383     1.6542 H       
@<TRIPOS>BOND
   1    1    2 ar
   2    1   10 1
   3    1    6 ar
   4    2   31 1
   5    2    3 ar
   6    3    4 ar
   7    3   11 1
   8    4    5 ar
   9    4   33 1
  10    5    6 ar
  11    5    7 1
  12    6    9 1
  13    7    8 am
  14    7   23 2
  15    8    9 1
  16    8   24 1
  17    9   34 1
  18    9   35 1
  19   11   12 1
  20   11   36 1
  21   11   37 1
  22   12   13 ar
  23   12   17 ar
  24   13   14 ar
  25   13   38 1
  26   14   15 ar
  27   14   39 1
  28   15   16 ar
  29   15   18 1
  30   16   17 ar
  31   16   40 1
  32   17   41 1
  33   18   19 1
  34   18   22 1
  35   19   20 2
  36   19   42 1
  37   20   21 1
  38   20   43 1
  39   21   22 2
  40   21   44 1
  41   24   25 1
  42   24   29 1
  43   24   45 1
  44   25   26 1
  45   25   30 1
  46   25   46 1
  47   26   27 1
  48   26   47 1
  49   26   48 1
  50   27   28 1
  51   27   49 1
  52   27   50 1
  53   28   29 1
  54   28   51 1
  55   28   52 1
  56   29   53 1
  57   29   54 1
  58   30   55 1
  59   31   32 1
  60   32   56 1
  61   32   57 1
  62   32   58 1

#	End of record

