#	Name: ASD01850128
#	Creating user name:	WinNT
#	Creation time:	15. 06. 2019 19:38

#	Modifying user name:	WinNT
#	Modification time:	15. 06. 2019 19:38

#	Program:	/corina/corina34_cracker 3.40 0067  02.08.2006

@<TRIPOS>MOLECULE
ASD01850128
  59   63    0    0    0
SMALL
NO_CHARGES


@<TRIPOS>ATOM
   1 C1            -0.0066     1.4454     0.0351 C.ar    
   2 C2             0.0190     0.0623     0.0194 C.ar    
   3 C3             1.2236    -0.6107     0.0096 C.ar    
   4 C4             2.4201     0.1053     0.0152 C.ar    
   5 C5             2.3841     1.5049     0.0495 C.ar    
   6 C6             1.1768     2.1642     0.0499 C.ar    
   7 C7             3.8359    -0.3198    -0.0153 C.2     
   8 N8             4.6246     0.7447    -0.1569 N.am    
   9 C9             3.8139     1.9566     0.1056 C.3     
  10 C10            5.9340     1.3079    -0.5358 C.3     
  11 C11            5.5436     2.5423    -1.3857 C.3     
  12 N12            4.1668     2.8896    -0.9700 N.am    
  13 C13            3.3913     3.8674    -1.4788 C.2     
  14 C14            3.9222     4.7602    -2.5275 C.ar    
  15 C15            3.0963     5.7248    -3.1105 C.ar    
  16 C16            3.5955     6.5560    -4.0882 C.ar    
  17 C17            4.9190     6.4362    -4.4957 C.ar    
  18 C18            5.7438     5.4780    -3.9182 C.ar    
  19 C19            5.2537     4.6468    -2.9358 C.ar    
  20 O20            2.2542     4.0142    -1.0739 O.2     
  21 C21            4.1379     2.5343     1.4593 C.ar    
  22 O22            4.2225    -1.4687     0.0753 O.2     
  23 O23            5.4070     7.2568    -5.4602 O.3     
  24 C24            4.5509     1.7031     2.4837 C.ar    
  25 C25            4.8495     2.2298     3.7270 C.ar    
  26 C26            4.7355     3.5894     3.9481 C.ar    
  27 C27            4.3207     4.4259     2.9204 C.ar    
  28 C28            4.0272     3.8951     1.6734 C.ar    
  29 Cl29           5.1097     4.2503     5.5091 Cl      
  30 C30            4.4738     8.1239    -6.1076 C.3     
  31 C31            4.4596     9.4792    -5.3977 C.3     
  32 C32            4.8860     8.3175    -7.5682 C.3     
  33 O33            4.2076     5.7634     3.1348 O.3     
  34 C34            3.7756     6.5629     2.0320 C.3     
  35 H35           -0.9527     1.9662     0.0313 H       
  36 H36           -0.9074    -0.4929     0.0153 H       
  37 H37            1.2397    -1.6906    -0.0022 H       
  38 H38            1.1520     3.2439     0.0610 H       
  39 H39            6.4950     1.6098     0.3486 H       
  40 H40            6.5038     0.5941    -1.1307 H       
  41 H41            6.2203     3.3715    -1.1792 H       
  42 H42            5.5655     2.2920    -2.4463 H       
  43 H43            2.0676     5.8180    -2.7949 H       
  44 H44            2.9577     7.3018    -4.5393 H       
  45 H45            6.7715     5.3878    -4.2378 H       
  46 H46            5.8953     3.9025    -2.4876 H       
  47 H47            4.6403     0.6405     2.3128 H       
  48 H48            5.1716     1.5783     4.5259 H       
  49 H49            3.7048     4.5437     0.8723 H       
  50 H50            3.4783     7.6818    -6.0666 H       
  51 H51            3.7477    10.1406    -5.8915 H       
  52 H52            4.1659     9.3412    -4.3571 H       
  53 H53            5.4551     9.9212    -5.4387 H       
  54 H54            4.8961     7.3520    -8.0740 H       
  55 H55            4.1741     8.9789    -8.0620 H       
  56 H56            5.8815     8.7596    -7.6093 H       
  57 H57            4.4811     6.4570     1.2080 H       
  58 H58            2.7879     6.2335     1.7093 H       
  59 H59            3.7280     7.6081     2.3376 H       
@<TRIPOS>BOND
   1    1    2 ar
   2    1    6 ar
   3    1   35 1
   4    2    3 ar
   5    2   36 1
   6    3    4 ar
   7    3   37 1
   8    4    5 ar
   9    4    7 1
  10    5    6 ar
  11    5    9 1
  12    6   38 1
  13    7    8 am
  14    7   22 2
  15    8    9 1
  16    8   10 1
  17    9   21 1
  18    9   12 1
  19   10   11 1
  20   10   39 1
  21   10   40 1
  22   11   12 1
  23   11   41 1
  24   11   42 1
  25   12   13 am
  26   13   14 1
  27   13   20 2
  28   14   15 ar
  29   14   19 ar
  30   15   16 ar
  31   15   43 1
  32   16   17 ar
  33   16   44 1
  34   17   18 ar
  35   17   23 1
  36   18   19 ar
  37   18   45 1
  38   19   46 1
  39   21   24 ar
  40   21   28 ar
  41   23   30 1
  42   24   25 ar
  43   24   47 1
  44   25   26 ar
  45   25   48 1
  46   26   27 ar
  47   26   29 1
  48   27   28 ar
  49   27   33 1
  50   28   49 1
  51   30   31 1
  52   30   32 1
  53   30   50 1
  54   31   51 1
  55   31   52 1
  56   31   53 1
  57   32   54 1
  58   32   55 1
  59   32   56 1
  60   33   34 1
  61   34   57 1
  62   34   58 1
  63   34   59 1

#	End of record

