#	Name: ASD02270003
#	Creating user name:	WinNT
#	Creation time:	15. 06. 2019 20:20

#	Modifying user name:	WinNT
#	Modification time:	15. 06. 2019 20:20

#	Program:	/corina/corina34_cracker 3.40 0067  02.08.2006

@<TRIPOS>MOLECULE
ASD02270003
  60   64    0    0    0
SMALL
NO_CHARGES


@<TRIPOS>ATOM
   1 N1            -0.2332     1.3102     0.1491 N.am    
   2 C2            -0.0766    -0.1487     0.2082 C.3     
   3 N3             1.3689    -0.4007     0.4141 N.3     
   4 C4             2.0042     0.7943    -0.1791 C.3     
   5 C5             0.9654     1.8846    -0.0858 C.2     
   6 O6             1.1721     3.0739    -0.2024 O.2     
   7 C7             3.2501     1.1760     0.6157 C.3     
   8 C8             3.9167     2.3888    -0.0397 C.3     
   9 N9             4.2619     2.0654    -1.4300 N.3     
  10 C10            3.0623     1.7606    -2.2203 C.3     
  11 C11            2.3670     0.5271    -1.6374 C.3     
  12 C12            5.0365     3.1508    -2.0462 C.3     
  13 C13            5.5879     2.6822    -3.3943 C.3     
  14 N14            6.3605     3.7646    -4.0088 N.am    
  15 C15            6.9444     3.5784    -5.2092 C.2     
  16 C16            7.7237     4.6702    -5.8291 C.ar    
  17 C17            7.8525     5.9014    -5.1620 C.ar    
  18 C18            8.5631     6.9195    -5.7109 C.ar    
  19 C19            9.1823     6.7508    -6.9627 C.ar    
  20 C20            9.0602     5.5137    -7.6453 C.ar    
  21 C21            8.3264     4.4712    -7.0603 C.ar    
  22 C22            9.9220     7.7902    -7.5511 C.ar    
  23 C23           10.5097     7.5976    -8.7639 C.ar    
  24 C24           10.3896     6.3822    -9.4352 C.ar    
  25 C25            9.6817     5.3521    -8.8969 C.ar    
  26 O26            6.8301     2.5122    -5.7819 O.2     
  27 C27            1.7735    -1.5628    -0.2468 C.ar    
  28 C28            2.7357    -2.3875     0.3219 C.ar    
  29 C29            3.1342    -3.5367    -0.3330 C.ar    
  30 C30            2.5772    -3.8672    -1.5541 C.ar    
  31 C31            1.6172    -3.0475    -2.1251 C.ar    
  32 C32            1.2103    -1.8988    -1.4711 C.ar    
  33 F33            1.0746    -3.3732    -3.3187 F       
  34 H34           -1.0705     1.7877     0.2580 H       
  35 H35           -0.6502    -0.5538     1.0418 H       
  36 H36           -0.4060    -0.5992    -0.7281 H       
  37 H37            2.9670     1.4250     1.6385 H       
  38 H38            3.9471     0.3381     0.6243 H       
  39 H39            3.2292     3.2345    -0.0232 H       
  40 H40            4.8226     2.6463     0.5091 H       
  41 H41            2.3808     2.6107    -2.1889 H       
  42 H42            3.3485     1.5622    -3.2532 H       
  43 H43            3.0382    -0.3298    -1.6942 H       
  44 H44            1.4604     0.3181    -2.2054 H       
  45 H45            4.3917     4.0163    -2.1986 H       
  46 H46            5.8633     3.4246    -1.3908 H       
  47 H47            6.2328     1.8167    -3.2419 H       
  48 H48            4.7612     2.4084    -4.0497 H       
  49 H49            6.4517     4.6153    -3.5519 H       
  50 H50            7.3798     6.0388    -4.2007 H       
  51 H51            8.6528     7.8594    -5.1865 H       
  52 H52            8.2255     3.5240    -7.5693 H       
  53 H53           10.0237     8.7382    -7.0437 H       
  54 H54           11.0775     8.3992    -9.2129 H       
  55 H55           10.8653     6.2559   -10.3965 H       
  56 H56            9.5972     4.4155    -9.4280 H       
  57 H57            3.1724    -2.1303     1.2757 H       
  58 H58            3.8823    -4.1776     0.1096 H       
  59 H59            2.8911    -4.7658    -2.0642 H       
  60 H60            0.4621    -1.2595    -1.9158 H       
@<TRIPOS>BOND
   1    1    2 1
   2    1    5 am
   3    1   34 1
   4    2    3 1
   5    2   35 1
   6    2   36 1
   7    3    4 1
   8    3   27 1
   9    4    5 1
  10    4    7 1
  11    4   11 1
  12    5    6 2
  13    7    8 1
  14    7   37 1
  15    7   38 1
  16    8    9 1
  17    8   39 1
  18    8   40 1
  19    9   10 1
  20    9   12 1
  21   10   11 1
  22   10   41 1
  23   10   42 1
  24   11   43 1
  25   11   44 1
  26   12   13 1
  27   12   45 1
  28   12   46 1
  29   13   14 1
  30   13   47 1
  31   13   48 1
  32   14   15 am
  33   14   49 1
  34   15   16 1
  35   15   26 2
  36   16   17 ar
  37   16   21 ar
  38   17   18 ar
  39   17   50 1
  40   18   19 ar
  41   18   51 1
  42   19   20 ar
  43   19   22 ar
  44   20   21 ar
  45   20   25 ar
  46   21   52 1
  47   22   23 ar
  48   22   53 1
  49   23   24 ar
  50   23   54 1
  51   24   25 ar
  52   24   55 1
  53   25   56 1
  54   27   28 ar
  55   27   32 ar
  56   28   29 ar
  57   28   57 1
  58   29   30 ar
  59   29   58 1
  60   30   31 ar
  61   30   59 1
  62   31   32 ar
  63   31   33 1
  64   32   60 1

#	End of record

