#	Name: ASD07110008
#	Creating user name:	WinNT
#	Creation time:	15. 06. 2019 21:08

#	Modifying user name:	WinNT
#	Modification time:	15. 06. 2019 21:08

#	Program:	/corina/corina34_cracker 3.40 0067  02.08.2006

@<TRIPOS>MOLECULE
ASD07110008
 150  151    0    0    0
SMALL
NO_CHARGES


@<TRIPOS>ATOM
   1 C1            -3.8767     9.2376     2.3105 C.2     
   2 O2            -3.8563     9.6932     1.1867 O.2     
   3 N3            -2.0461    10.7525     2.8190 N.3     
   4 C4            -3.0923     9.9071     3.4093 C.3     
   5 C5            -4.0316    10.7720     4.2523 C.3     
   6 C6            -3.2618    11.3523     5.4403 C.3     
   7 C7            -4.1870    12.2042     6.2706 C.2     
   8 O8            -5.3478    12.3345     5.9442 O.2     
   9 N9            -3.7245    12.8214     7.3759 N.am    
  10 C10           -6.5239     6.7243     2.1125 C.2     
  11 O11           -6.6872     6.7209     3.3143 O.2     
  12 N12           -4.6054     8.1357     2.5777 N.am    
  13 C13           -5.3727     7.4884     1.5108 C.3     
  14 C14           -4.4660     6.5240     0.7435 C.3     
  15 C15           -3.3680     7.3150     0.0297 C.3     
  16 C16           -2.4750     6.3651    -0.7260 C.2     
  17 O17           -2.6942     5.1772    -0.6967 O.2     
  18 O18           -1.4360     6.8386    -1.4317 O.3     
  19 C19           -8.8947     4.1872     0.9701 C.2     
  20 O20           -8.3057     4.0287    -0.0782 O.2     
  21 N21           -7.3719     6.0449     1.3152 N.am    
  22 C22           -8.4909     5.3021     1.9002 C.3     
  23 C23           -9.6763     6.2466     2.1090 C.3     
  24 C24          -10.1030     6.8349     0.7626 C.3     
  25 C25          -11.3639     7.6806     0.9521 C.3     
  26 C26           -9.2664     7.3785     3.0533 C.3     
  27 C27          -11.4478     2.9448    -0.5265 C.2     
  28 O28          -11.7894     4.0985    -0.3736 O.2     
  29 N29           -9.9104     3.3663     1.3032 N.am    
  30 C30          -10.3758     2.3536     0.3523 C.3     
  31 C31          -10.9462     1.1584     1.1186 C.3     
  32 C32           -9.8417     0.4826     1.8896 C.2     
  33 O33           -8.7277     0.9620     1.8992 O.2     
  34 N34          -10.0919    -0.6545     2.5684 N.am    
  35 C35          -14.4405     2.4321    -1.5579 C.2     
  36 O36          -14.4339     1.8288    -0.5059 O.2     
  37 N37          -12.0269     2.1916    -1.4824 N.am    
  38 C38          -13.1429     2.7304    -2.2637 C.3     
  39 C39          -13.1552     2.0821    -3.6495 C.3     
  40 C40          -11.9203     2.4948    -4.4082 C.2     
  41 O41          -11.0698     3.1661    -3.8633 O.2     
  42 N42          -11.7609     2.1178    -5.6923 N.am    
  43 C43          -17.9934     2.5191    -2.4139 C.2     
  44 O44          -17.7630     2.7223    -3.5872 O.2     
  45 N45          -15.6085     2.8357    -2.0959 N.am    
  46 C46          -16.8700     2.5457    -1.4098 C.3     
  47 C47          -17.1442     3.6306    -0.3664 C.3     
  48 C48          -16.0859     3.5761     0.7051 C.2     
  49 C49          -15.3035     4.5995     1.0974 C.2     
  50 N50          -14.4897     4.1189     2.0875 N.pl3   
  51 C51          -14.8033     2.8176     2.2659 C.2     
  52 N52          -15.7622     2.5012     1.4392 N.2     
  53 C53          -21.6467     2.5600    -2.2918 C.2     
  54 O54          -21.6600     2.7850    -1.1001 O.2     
  55 N55          -19.2542     2.2693    -2.0082 N.am    
  56 C56          -20.3462     2.2434    -2.9844 C.3     
  57 C57          -20.4310     0.8534    -3.6180 C.3     
  58 C58          -19.1599     0.5825    -4.4254 C.3     
  59 C59          -19.1887    -0.8524    -4.9556 C.3     
  60 C60          -19.0845     1.5592    -5.6007 C.3     
  61 C61          -25.2019     2.3020    -3.1024 C.2     
  62 O62          -24.9819     1.6796    -4.1198 O.2     
  63 N63          -22.7950     2.5929    -2.9966 N.am    
  64 C64          -24.0592     2.9007    -2.3234 C.3     
  65 C65          -24.2373     4.4181    -2.2416 C.3     
  66 C66          -23.0162     5.0389    -1.5601 C.3     
  67 O67          -24.3708     4.9537    -3.5597 O.3     
  68 C68          -27.9910     2.8246    -4.5221 C.2     
  69 O69          -27.4156     3.8784    -4.6571 O.2     
  70 N70          -26.4683     2.4583    -2.6684 N.am    
  71 C71          -27.5791     1.8763    -3.4257 C.3     
  72 C72          -28.7641     1.6348    -2.4885 C.3     
  73 C73          -28.3909     0.5938    -1.4647 C.2     
  74 C74          -28.4639     0.7369    -0.1277 C.2     
  75 N75          -28.0335    -0.4411     0.4208 N.pl3   
  76 C76          -27.7122    -1.2635    -0.6009 C.2     
  77 N77          -27.9332    -0.6397    -1.7256 N.2     
  78 O78          -28.9970     2.4985    -5.3488 O.3     
  79 H79           -1.3757    10.1959     2.3101 H       
  80 H80           -2.4475    11.4649     2.2278 H       
  81 H81           -2.6322     9.1478     4.0417 H       
  82 H82           -4.4233    11.5851     3.6410 H       
  83 H83           -4.8576    10.1617     4.6176 H       
  84 H84           -2.8702    10.5392     6.0516 H       
  85 H85           -2.4359    11.9626     5.0750 H       
  86 H86           -2.7961    12.7173     7.6369 H       
  87 H87           -4.3200    13.3698     7.9102 H       
  88 H88           -4.6217     7.7713     3.4765 H       
  89 H89           -5.7570     8.2465     0.8283 H       
  90 H90           -4.0118     5.8199     1.4408 H       
  91 H91           -5.0565     5.9773     0.0083 H       
  92 H92           -3.8223     8.0190    -0.6675 H       
  93 H93           -2.7776     7.8617     0.7650 H       
  94 H94           -0.8916     6.1909    -1.8999 H       
  95 H95           -7.2412     6.0476     0.3541 H       
  96 H96           -8.1870     4.8829     2.8594 H       
  97 H97          -10.5090     5.6940     2.5442 H       
  98 H98           -9.3017     7.4605     0.3692 H       
  99 H99          -10.3099     6.0261     0.0619 H       
 100 H100         -12.1651     7.0551     1.3456 H       
 101 H101         -11.1569     8.4895     1.6529 H       
 102 H102         -11.6678     8.0998    -0.0070 H       
 103 H103          -8.4338     7.9311     2.6180 H       
 104 H104         -10.1109     8.0514     3.2020 H       
 105 H105          -8.9624     6.9594     4.0124 H       
 106 H106         -10.3333     3.4459     2.1726 H       
 107 H107          -9.5404     2.0241    -0.2654 H       
 108 H108         -11.7140     1.5036     1.8109 H       
 109 H109         -11.3835     0.4506     0.4144 H       
 110 H110         -10.9829    -1.0379     2.5607 H       
 111 H111          -9.3810    -1.0895     3.0647 H       
 112 H112         -11.7048     1.2927    -1.6530 H       
 113 H113         -13.0258     3.8091    -2.3683 H       
 114 H114         -13.1707     0.9974    -3.5430 H       
 115 H115         -14.0418     2.4063    -4.1944 H       
 116 H116         -12.4411     1.5809    -6.1282 H       
 117 H117         -10.9661     2.3835    -6.1807 H       
 118 H118         -15.6139     3.3183    -2.9373 H       
 119 H119         -16.8007     1.5763    -0.9163 H       
 120 H120         -17.1254     4.6092    -0.8462 H       
 121 H121         -18.1239     3.4644     0.0817 H       
 122 H122         -15.3156     5.6060     0.7059 H       
 123 H123         -13.8138     4.6195     2.5708 H       
 124 H124         -14.3402     2.1503     2.9777 H       
 125 H125         -19.4384     2.1068    -1.0698 H       
 126 H126         -20.1578     2.9855    -3.7602 H       
 127 H127         -20.5307     0.1023    -2.8343 H       
 128 H128         -21.2974     0.8071    -4.2778 H       
 129 H129         -18.2877     0.7160    -3.7855 H       
 130 H130         -20.0609    -0.9858    -5.5955 H       
 131 H131         -18.2831    -1.0453    -5.5308 H       
 132 H132         -19.2424    -1.5481    -4.1183 H       
 133 H133         -19.0640     2.5814    -5.2229 H       
 134 H134         -18.1789     1.3662    -6.1759 H       
 135 H135         -19.9567     1.4257    -6.2406 H       
 136 H136         -22.7843     2.4129    -3.9497 H       
 137 H137         -24.0464     2.4816    -1.3172 H       
 138 H138         -25.1322     4.6482    -1.6635 H       
 139 H139         -22.1213     4.8088    -2.1382 H       
 140 H140         -23.1431     6.1199    -1.5018 H       
 141 H141         -22.9144     4.6303    -0.5547 H       
 142 H142         -23.6090     4.7862    -4.1313 H       
 143 H143         -26.6442     2.9561    -1.8547 H       
 144 H144         -27.2636     0.9294    -3.8638 H       
 145 H145         -29.0230     2.5651    -1.9829 H       
 146 H146         -29.6194     1.2854    -3.0668 H       
 147 H147         -28.7976     1.6128     0.4088 H       
 148 H148         -27.9710    -0.6466     1.3667 H       
 149 H149         -27.3382    -2.2720    -0.5035 H       
 150 H150         -29.2251     3.1387    -6.0366 H       
@<TRIPOS>BOND
   1    1    2 2
   2    1    4 1
   3    1   12 am
   4    3    4 1
   5    3   79 1
   6    3   80 1
   7    4    5 1
   8    4   81 1
   9    5    6 1
  10    5   82 1
  11    5   83 1
  12    6    7 1
  13    6   84 1
  14    6   85 1
  15    7    8 2
  16    7    9 am
  17    9   86 1
  18    9   87 1
  19   10   11 2
  20   10   13 1
  21   10   21 am
  22   12   13 1
  23   12   88 1
  24   13   14 1
  25   13   89 1
  26   14   15 1
  27   14   90 1
  28   14   91 1
  29   15   16 1
  30   15   92 1
  31   15   93 1
  32   16   17 2
  33   16   18 1
  34   18   94 1
  35   19   20 2
  36   19   22 1
  37   19   29 am
  38   21   22 1
  39   21   95 1
  40   22   23 1
  41   22   96 1
  42   23   24 1
  43   23   26 1
  44   23   97 1
  45   24   25 1
  46   24   98 1
  47   24   99 1
  48   25  100 1
  49   25  101 1
  50   25  102 1
  51   26  103 1
  52   26  104 1
  53   26  105 1
  54   27   28 2
  55   27   30 1
  56   27   37 am
  57   29   30 1
  58   29  106 1
  59   30   31 1
  60   30  107 1
  61   31   32 1
  62   31  108 1
  63   31  109 1
  64   32   33 2
  65   32   34 am
  66   34  110 1
  67   34  111 1
  68   35   36 2
  69   35   38 1
  70   35   45 am
  71   37   38 1
  72   37  112 1
  73   38   39 1
  74   38  113 1
  75   39   40 1
  76   39  114 1
  77   39  115 1
  78   40   41 2
  79   40   42 am
  80   42  116 1
  81   42  117 1
  82   43   44 2
  83   43   46 1
  84   43   55 am
  85   45   46 1
  86   45  118 1
  87   46   47 1
  88   46  119 1
  89   47   48 1
  90   47  120 1
  91   47  121 1
  92   48   49 2
  93   48   52 1
  94   49   50 1
  95   49  122 1
  96   50   51 1
  97   50  123 1
  98   51   52 2
  99   51  124 1
 100   53   54 2
 101   53   56 1
 102   53   63 am
 103   55   56 1
 104   55  125 1
 105   56   57 1
 106   56  126 1
 107   57   58 1
 108   57  127 1
 109   57  128 1
 110   58   59 1
 111   58   60 1
 112   58  129 1
 113   59  130 1
 114   59  131 1
 115   59  132 1
 116   60  133 1
 117   60  134 1
 118   60  135 1
 119   61   62 2
 120   61   64 1
 121   61   70 am
 122   63   64 1
 123   63  136 1
 124   64   65 1
 125   64  137 1
 126   65   66 1
 127   65   67 1
 128   65  138 1
 129   66  139 1
 130   66  140 1
 131   66  141 1
 132   67  142 1
 133   68   69 2
 134   68   71 1
 135   68   78 1
 136   70   71 1
 137   70  143 1
 138   71   72 1
 139   71  144 1
 140   72   73 1
 141   72  145 1
 142   72  146 1
 143   73   74 2
 144   73   77 1
 145   74   75 1
 146   74  147 1
 147   75   76 1
 148   75  148 1
 149   76   77 2
 150   76  149 1
 151   78  150 1

#	End of record

