#	Name: ASD03320154
#	Creating user name:	WinNT
#	Creation time:	15. 06. 2019 20:36

#	Modifying user name:	WinNT
#	Modification time:	15. 06. 2019 20:36

#	Program:	/corina/corina34_cracker 3.40 0067  02.08.2006

@<TRIPOS>MOLECULE
ASD03320154
  21   21    0    0    0
SMALL
NO_CHARGES


@<TRIPOS>ATOM
   1 N1            -0.0169     1.3952     0.0097 N.pl3   
   2 C2             0.0021    -0.0041     0.0020 C.ar    
   3 C3             1.2137    -0.6823    -0.0132 C.ar    
   4 C4             1.2315    -2.0633    -0.0208 C.ar    
   5 C5             0.0396    -2.7727    -0.0138 C.ar    
   6 C6            -1.1710    -2.0960     0.0010 C.ar    
   7 C7            -1.1906    -0.7151     0.0153 C.ar    
   8 O8             0.0581    -4.1325    -0.0217 O.3     
   9 C9            -1.2062    -4.7986    -0.0138 C.3     
  10 C10           -0.9852    -6.3125    -0.0245 C.3     
  11 F11           -1.9155    -4.4390     1.1373 F       
  12 F12           -1.9368    -4.4259    -1.1471 F       
  13 H13            0.8165     1.8915     0.0044 H       
  14 H14           -0.8634     1.8687     0.0163 H       
  15 H15            2.1418    -0.1301    -0.0194 H       
  16 H16            2.1737    -2.5910    -0.0327 H       
  17 H17           -2.0986    -2.6491     0.0061 H       
  18 H18           -2.1333    -0.1884     0.0320 H       
  19 H19           -0.4160    -6.6028     0.8585 H       
  20 H20           -1.9496    -6.8205    -0.0184 H       
  21 H21           -0.4326    -6.5926    -0.9213 H       
@<TRIPOS>BOND
   1    1    2 1
   2    1   13 1
   3    1   14 1
   4    2    3 ar
   5    2    7 ar
   6    3    4 ar
   7    3   15 1
   8    4    5 ar
   9    4   16 1
  10    5    6 ar
  11    5    8 1
  12    6    7 ar
  13    6   17 1
  14    7   18 1
  15    8    9 1
  16    9   10 1
  17    9   11 1
  18    9   12 1
  19   10   19 1
  20   10   20 1
  21   10   21 1

#	End of record

