#	Name: ASD01411001
#	Creating user name:	WinNT
#	Creation time:	15. 06. 2019 19:19

#	Modifying user name:	WinNT
#	Modification time:	15. 06. 2019 19:19

#	Program:	/corina/corina34_cracker 3.40 0067  02.08.2006

@<TRIPOS>MOLECULE
ASD01411001
  39   42    0    0    0
SMALL
NO_CHARGES


@<TRIPOS>ATOM
   1 N1             0.1176     1.4382    -1.1519 N.am    
   2 C2             0.1582     0.1086    -1.3568 C.2     
   3 C3             1.3587    -0.6201    -1.1725 C.2     
   4 C4             2.5079     0.0426    -0.7765 C.2     
   5 C5             2.4487     1.4300    -0.5674 C.2     
   6 C6             1.2366     2.1212    -0.7602 C.2     
   7 N7             1.2011     3.4394    -0.5563 N.2     
   8 C8             3.6265     2.1927    -0.1475 C.2     
   9 N9             3.4767     3.5261     0.0305 N.am    
  10 C10            2.2665     4.1126    -0.1800 C.2     
  11 C11            1.3843    -2.0836    -1.4018 C.ar    
  12 C12            0.6383    -2.9329    -0.5850 C.ar    
  13 C13            0.6651    -4.2949    -0.8028 C.ar    
  14 C14            1.4318    -4.8194    -1.8308 C.ar    
  15 C15            2.1751    -3.9799    -2.6447 C.ar    
  16 C16            2.1500    -2.6159    -2.4388 C.ar    
  17 N17            2.1529     5.4637     0.0096 N.pl3   
  18 C18            0.9006     6.0797    -0.0806 C.ar    
  19 C19           -1.5772     7.2983    -0.2593 C.ar    
  20 C20           -1.4740     6.0159     0.2479 C.ar    
  21 C21           -0.2388     5.4048     0.3384 C.ar    
  22 C22            0.7941     7.3697    -0.5842 C.ar    
  23 C23           -0.4441     7.9751    -0.6720 C.ar    
  24 O24           -0.8524    -0.4766    -1.7055 O.2     
  25 O25            4.7002     1.6475     0.0350 O.2     
  26 F26            1.4552    -6.1540    -2.0399 F       
  27 H27           -0.7140     1.9187    -1.2875 H       
  28 H28            3.4320    -0.4970    -0.6308 H       
  29 H29            4.2337     4.0650     0.3086 H       
  30 H30            0.0409    -2.5250     0.2170 H       
  31 H31            0.0877    -4.9534    -0.1708 H       
  32 H32            2.7715    -4.3935    -3.4445 H       
  33 H33            2.7258    -1.9619    -3.0768 H       
  34 H34            2.9411     5.9938     0.2066 H       
  35 H35           -2.5443     7.7738    -0.3293 H       
  36 H36           -2.3608     5.4902     0.5697 H       
  37 H37           -0.1589     4.4032     0.7342 H       
  38 H38            1.6787     7.8990    -0.9063 H       
  39 H39           -0.5281     8.9764    -1.0679 H       
@<TRIPOS>BOND
   1    1    2 am
   2    1    6 1
   3    1   27 1
   4    2    3 1
   5    2   24 2
   6    3    4 2
   7    3   11 1
   8    4    5 1
   9    4   28 1
  10    5    8 1
  11    5    6 2
  12    6    7 1
  13    7   10 2
  14    8    9 am
  15    8   25 2
  16    9   10 1
  17    9   29 1
  18   10   17 1
  19   11   12 ar
  20   11   16 ar
  21   12   13 ar
  22   12   30 1
  23   13   14 ar
  24   13   31 1
  25   14   15 ar
  26   14   26 1
  27   15   16 ar
  28   15   32 1
  29   16   33 1
  30   17   18 1
  31   17   34 1
  32   18   22 ar
  33   18   21 ar
  34   19   20 ar
  35   19   23 ar
  36   19   35 1
  37   20   21 ar
  38   20   36 1
  39   21   37 1
  40   22   23 ar
  41   22   38 1
  42   23   39 1

#	End of record

