#	Name: ASD02580005
#	Creating user name:	WinNT
#	Creation time:	15. 06. 2019 20:25

#	Modifying user name:	WinNT
#	Modification time:	15. 06. 2019 20:25

#	Program:	/corina/corina34_cracker 3.40 0067  02.08.2006

@<TRIPOS>MOLECULE
ASD02580005
  58   60    0    0    0
SMALL
NO_CHARGES


@<TRIPOS>ATOM
   1 C1            -0.2562     1.7438     0.3630 C.3     
   2 C2            -0.2987     0.1972     0.3096 C.3     
   3 C3            -0.3536    -0.2305     1.7890 C.3     
   4 O4            -0.2938     0.9667     2.5824 O.3     
   5 C5            -0.8293     2.0358     1.7732 C.3     
   6 C6            -1.5493    -0.2789    -0.4322 C.3     
   7 O7             0.8788    -0.3141    -0.3183 O.3     
   8 C8             0.8398    -1.1308     2.1150 C.3     
   9 O9             0.7169    -1.6239     3.4751 O.3     
  10 O10            1.0858     2.2213     0.2490 O.3     
  11 N11           -0.3619     3.3357     2.2610 N.pl3   
  12 C12           -0.9775     4.5459     2.0640 C.ar    
  13 C13           -0.1720     5.4997     2.7084 C.ar    
  14 N14            0.8740     4.8350     3.2552 N.2     
  15 C15            0.7614     3.5640     2.9988 C.2     
  16 N16           -2.0815     4.9470     1.4419 N.ar    
  17 C17           -2.4189     6.2191     1.4275 C.ar    
  18 N18           -1.6938     7.1516     2.0184 N.ar    
  19 C19           -0.5738     6.8458     2.6647 C.ar    
  20 N20            0.1794     7.8299     3.2807 N.pl3   
  21 C21            1.6906    -2.4336     3.9201 C.2     
  22 O22            2.6149    -2.7209     3.1970 O.2     
  23 C23            1.6308    -2.9844     5.3216 C.3     
  24 C24            0.3554    -3.8126     5.4900 C.3     
  25 C25            2.8518    -3.8713     5.5735 C.3     
  26 C26            4.1180    -3.0127     5.5562 C.3     
  27 C27            0.2250    -4.2574     6.9482 C.3     
  28 C28            5.3471    -3.9136     5.6925 C.3     
  29 C29           -1.1121    -4.9746     7.1450 C.3     
  30 H30           -0.8886     2.1772    -0.4118 H       
  31 H31           -1.2852    -0.7604     1.9873 H       
  32 H32           -1.9186     1.9986     1.7601 H       
  33 H33           -1.5254     0.0890    -1.4580 H       
  34 H34           -1.5757    -1.3686    -0.4377 H       
  35 H35           -2.4376     0.1036     0.0704 H       
  36 H36            0.9918    -0.0275    -1.2349 H       
  37 H37            0.8590    -1.9731     1.4235 H       
  38 H38            1.7631    -0.5596     2.0176 H       
  39 H39            1.1642     3.1847     0.2771 H       
  40 H40            1.4591     2.8035     3.3168 H       
  41 H41           -3.3223     6.5115     0.9129 H       
  42 H42           -0.1085     8.7554     3.2438 H       
  43 H43            0.9952     7.5941     3.7495 H       
  44 H44            1.6262    -2.1610     6.0357 H       
  45 H45           -0.5092    -3.2082     5.2158 H       
  46 H46            0.4043    -4.6903     4.8455 H       
  47 H47            2.7546    -4.3559     6.5450 H       
  48 H48            2.9167    -4.6302     4.7938 H       
  49 H49            4.1722    -2.4640     4.6159 H       
  50 H50            4.0904    -2.3077     6.3871 H       
  51 H51            1.0412    -4.9362     7.1954 H       
  52 H52            0.2684    -3.3845     7.5995 H       
  53 H53            6.2492    -3.3019     5.6802 H       
  54 H54            5.2929    -4.4623     6.6328 H       
  55 H55            5.3747    -4.6186     4.8617 H       
  56 H56           -1.9283    -4.2958     6.8978 H       
  57 H57           -1.1555    -5.8475     6.4936 H       
  58 H58           -1.2050    -5.2914     8.1838 H       
@<TRIPOS>BOND
   1    1    2 1
   2    1   10 1
   3    1    5 1
   4    1   30 1
   5    2    6 1
   6    2    7 1
   7    2    3 1
   8    3    4 1
   9    3    8 1
  10    3   31 1
  11    4    5 1
  12    5   11 1
  13    5   32 1
  14    6   33 1
  15    6   34 1
  16    6   35 1
  17    7   36 1
  18    8    9 1
  19    8   37 1
  20    8   38 1
  21    9   21 1
  22   10   39 1
  23   11   12 1
  24   11   15 1
  25   12   13 ar
  26   12   16 ar
  27   13   14 1
  28   13   19 ar
  29   14   15 2
  30   15   40 1
  31   16   17 ar
  32   17   18 ar
  33   17   41 1
  34   18   19 ar
  35   19   20 1
  36   20   42 1
  37   20   43 1
  38   21   22 2
  39   21   23 1
  40   23   24 1
  41   23   25 1
  42   23   44 1
  43   24   27 1
  44   24   45 1
  45   24   46 1
  46   25   26 1
  47   25   47 1
  48   25   48 1
  49   26   28 1
  50   26   49 1
  51   26   50 1
  52   27   29 1
  53   27   51 1
  54   27   52 1
  55   28   53 1
  56   28   54 1
  57   28   55 1
  58   29   56 1
  59   29   57 1
  60   29   58 1

#	End of record

