#	Name: ASD01900632
#	Creating user name:	WinNT
#	Creation time:	15. 06. 2019 19:52

#	Modifying user name:	WinNT
#	Modification time:	15. 06. 2019 19:52

#	Program:	/corina/corina34_cracker 3.40 0067  02.08.2006

@<TRIPOS>MOLECULE
ASD01900632
  38   41    0    0    0
SMALL
NO_CHARGES


@<TRIPOS>ATOM
   1 C1            -0.0167     1.3807     0.0096 C.ar    
   2 C2             0.0021    -0.0041     0.0020 C.ar    
   3 C3             1.1985    -0.6925    -0.0152 C.ar    
   4 C4             2.3999     0.0037    -0.0252 C.ar    
   5 C5             2.3760     1.4050    -0.0131 C.ar    
   6 O6             3.5769    -0.6572    -0.0537 O.3     
   7 C7             4.7390    -0.0447     0.2310 C.2     
   8 C8             4.8690     1.3029     0.2634 C.2     
   9 C9             3.6750     2.1247    -0.0105 C.2     
  10 N10            3.7558     3.4131    -0.2385 N.2     
  11 C11            5.9238    -0.8762     0.5210 C.ar    
  12 N12            7.0861    -0.2818     0.8057 N.ar    
  13 C13            8.1767    -0.9554     1.0731 C.ar    
  14 C14            8.1602    -2.3618     1.0688 C.ar    
  15 C15            6.9438    -3.0326     0.7709 C.ar    
  16 C16            5.8055    -2.2574     0.4977 C.ar    
  17 C17            9.3091    -3.1146     1.3494 C.ar    
  18 C18            9.2383    -4.4900     1.3315 C.ar    
  19 C19            8.0366    -5.1422     1.0368 C.ar    
  20 C20            6.9067    -4.4359     0.7612 C.ar    
  21 O21            5.0171     4.0565    -0.2264 O.3     
  22 C22            1.1683     2.0900     0.0021 C.ar    
  23 O23           10.3498    -5.2224     1.6030 O.3     
  24 C24           10.2140    -6.6445     1.5692 C.3     
  25 H25           -0.9598     1.9069     0.0169 H       
  26 H26           -0.9291    -0.5511     0.0100 H       
  27 H27            1.2000    -1.7725    -0.0204 H       
  28 H28            5.8208     1.7633     0.4835 H       
  29 H29            9.0927    -0.4290     1.2974 H       
  30 H30            4.8606    -2.7266     0.2665 H       
  31 H31           10.2418    -2.6203     1.5774 H       
  32 H32            8.0050    -6.2217     1.0282 H       
  33 H33            5.9857    -4.9526     0.5349 H       
  34 H34            4.9761     5.0060    -0.4048 H       
  35 H35            1.1557     3.1699     0.0077 H       
  36 H36           11.1729    -7.1068     1.8035 H       
  37 H37            9.4713    -6.9562     2.3036 H       
  38 H38            9.8942    -6.9554     0.5746 H       
@<TRIPOS>BOND
   1    1    2 ar
   2    1   22 ar
   3    1   25 1
   4    2    3 ar
   5    2   26 1
   6    3    4 ar
   7    3   27 1
   8    4    5 ar
   9    4    6 1
  10    5   22 ar
  11    5    9 1
  12    6    7 1
  13    7    8 2
  14    7   11 1
  15    8    9 1
  16    8   28 1
  17    9   10 2
  18   10   21 1
  19   11   12 ar
  20   11   16 ar
  21   12   13 ar
  22   13   14 ar
  23   13   29 1
  24   14   15 ar
  25   14   17 ar
  26   15   16 ar
  27   15   20 ar
  28   16   30 1
  29   17   18 ar
  30   17   31 1
  31   18   19 ar
  32   18   23 1
  33   19   20 ar
  34   19   32 1
  35   20   33 1
  36   21   34 1
  37   22   35 1
  38   23   24 1
  39   24   36 1
  40   24   37 1
  41   24   38 1

#	End of record

