#	Name: ASD05872048
#	Creating user name:	WinNT
#	Creation time:	15. 06. 2019 21:04

#	Modifying user name:	WinNT
#	Modification time:	15. 06. 2019 21:04

#	Program:	/corina/corina34_cracker 3.40 0067  02.08.2006

@<TRIPOS>MOLECULE
ASD05872048
  83   85    0    0    0
SMALL
NO_CHARGES


@<TRIPOS>ATOM
   1 C1            -0.3148     2.6738    -2.1973 C.3     
   2 C2            -0.7540     1.2346    -1.9198 C.3     
   3 C3             0.3019     0.2666    -2.4572 C.3     
   4 C4             1.6393     0.5344    -1.7640 C.3     
   5 C5             2.0785     1.9735    -2.0415 C.3     
   6 C6             1.0226     2.9416    -1.5041 C.3     
   7 C7             3.4158     2.2413    -1.3482 C.3     
   8 C8             4.5003     1.3629    -1.9754 C.3     
   9 O9             4.6084     1.6615    -3.3687 O.3     
  10 C10            5.1014     0.6841    -4.1722 C.ar    
  11 C11            5.1313     0.8695    -5.5542 C.ar    
  12 C12            5.6324    -0.1223    -6.3735 C.ar    
  13 C13            6.1100    -1.3135    -5.8130 C.ar    
  14 C14            6.0765    -1.4917    -4.4245 C.ar    
  15 C15            5.5797    -0.4948    -3.6147 C.ar    
  16 C16            6.6439    -2.3727    -6.6788 C.2     
  17 C17            7.1049    -3.5230    -6.1350 C.2     
  18 O18           -0.9012     1.0448    -0.5112 O.3     
  19 C19           -2.2116     1.3335    -0.0196 C.3     
  20 C20           -2.5035     0.4568     1.1999 C.3     
  21 O21           -3.8139     0.7455     1.6914 O.3     
  22 C22           -2.4236    -0.9954     0.8052 C.ar    
  23 C23           -3.4898    -1.5947     0.1616 C.ar    
  24 C24           -3.4214    -2.9270    -0.2026 C.ar    
  25 C25           -2.2823    -3.6638     0.0772 C.ar    
  26 C26           -1.2083    -3.0602     0.7250 C.ar    
  27 C27           -1.2815    -1.7239     1.0828 C.ar    
  28 O28           -0.1082    -1.0775    -2.1981 O.3     
  29 C29            0.3591    -2.0238    -3.1615 C.3     
  30 C30            5.8196     1.6344    -1.2996 C.2     
  31 O31            5.9697     1.3574    -0.1218 O.co2   
  32 O32            6.7371     2.1309    -1.9307 O.co2   
  33 O33            3.7671     3.6174    -1.5061 O.3     
  34 S34            3.8497     4.3894    -0.1970 S.o2    
  35 O35            3.8862     5.8015    -0.5444 O.co2   
  36 O36            2.6612     4.0460     0.5681 O.co2   
  37 O37            5.0700     3.9589     0.4674 O.co2   
  38 O38            4.6662     2.0274    -6.0950 O.3     
  39 C39            4.7271     2.1495    -7.5174 C.3     
  40 C40            7.6188    -4.5425    -6.9684 C.2     
  41 O41            7.6469    -4.3848    -8.1831 O.co2   
  42 O42            8.0362    -5.5840    -6.4760 O.co2   
  43 C43           -2.2915     2.7857     0.3750 C.2     
  44 O44           -3.3543     3.2618     0.7358 O.co2   
  45 O45           -1.2932     3.4845     0.3335 O.co2   
  46 O46           -2.2136    -4.9743    -0.2798 O.3     
  47 S47           -1.6452    -5.2075    -1.6723 S.o2    
  48 O48           -1.9699    -6.5786    -2.0337 O.co2   
  49 O49           -2.2864    -4.2442    -2.5538 O.co2   
  50 O50           -0.2095    -4.9924    -1.5808 O.co2   
  51 O51           -0.0880    -3.7795     1.0023 O.3     
  52 C52            0.9743    -3.0947     1.6690 C.3     
  53 H53           -0.2025     2.8186    -3.2718 H       
  54 H54           -1.0671     3.3634    -1.8144 H       
  55 H55           -1.7067     1.0439    -2.4137 H       
  56 H56            0.4143     0.4114    -3.5317 H       
  57 H57            1.5270     0.3896    -0.6895 H       
  58 H58            2.3916    -0.1553    -2.1469 H       
  59 H59            2.1908     2.1183    -3.1160 H       
  60 H60            1.3354     3.9668    -1.7018 H       
  61 H61            0.9102     2.7968    -0.4296 H       
  62 H62            3.3281     2.0082    -0.2871 H       
  63 H63            4.2361     0.3131    -1.8482 H       
  64 H64            5.6557     0.0200    -7.4438 H       
  65 H65            6.4439    -2.4090    -3.9885 H       
  66 H66            5.5544    -0.6333    -2.5439 H       
  67 H67            6.6686    -2.2336    -7.7495 H       
  68 H68            7.0802    -3.6620    -5.0643 H       
  69 H69           -2.9454     1.1278    -0.7989 H       
  70 H70           -1.7696     0.6624     1.9792 H       
  71 H71           -4.5189     0.5851     1.0494 H       
  72 H72           -4.3785    -1.0212    -0.0571 H       
  73 H73           -4.2562    -3.3930    -0.7048 H       
  74 H74           -0.4496    -1.2532     1.5855 H       
  75 H75           -0.0207    -1.7561    -4.1475 H       
  76 H76            1.4489    -2.0176    -3.1779 H       
  77 H77            0.0054    -3.0195    -2.8939 H       
  78 H78            4.3258     3.1178    -7.8165 H       
  79 H79            5.7636     2.0688    -7.8450 H       
  80 H80            4.1383     1.3549    -7.9758 H       
  81 H81            1.8053    -3.7816     1.8294 H       
  82 H82            1.3081    -2.2575     1.0560 H       
  83 H83            0.6198    -2.7225     2.6303 H       
@<TRIPOS>BOND
   1    1    2 1
   2    1    6 1
   3    1   53 1
   4    1   54 1
   5    2    3 1
   6    2   18 1
   7    2   55 1
   8    3    4 1
   9    3   28 1
  10    3   56 1
  11    4    5 1
  12    4   57 1
  13    4   58 1
  14    5    6 1
  15    5    7 1
  16    5   59 1
  17    6   60 1
  18    6   61 1
  19    7    8 1
  20    7   33 1
  21    7   62 1
  22    8    9 1
  23    8   30 1
  24    8   63 1
  25    9   10 1
  26   10   11 ar
  27   10   15 ar
  28   11   12 ar
  29   11   38 1
  30   12   13 ar
  31   12   64 1
  32   13   14 ar
  33   13   16 1
  34   14   15 ar
  35   14   65 1
  36   15   66 1
  37   16   17 2
  38   16   67 1
  39   17   40 1
  40   17   68 1
  41   18   19 1
  42   19   20 1
  43   19   43 1
  44   19   69 1
  45   20   21 1
  46   20   22 1
  47   20   70 1
  48   21   71 1
  49   22   23 ar
  50   22   27 ar
  51   23   24 ar
  52   23   72 1
  53   24   25 ar
  54   24   73 1
  55   25   26 ar
  56   25   46 1
  57   26   27 ar
  58   26   51 1
  59   27   74 1
  60   28   29 1
  61   29   75 1
  62   29   76 1
  63   29   77 1
  64   30   31 ar
  65   30   32 ar
  66   33   34 1
  67   34   35 ar
  68   34   36 ar
  69   34   37 ar
  70   38   39 1
  71   39   78 1
  72   39   79 1
  73   39   80 1
  74   40   41 ar
  75   40   42 ar
  76   43   44 ar
  77   43   45 ar
  78   46   47 1
  79   47   48 ar
  80   47   49 ar
  81   47   50 ar
  82   51   52 1
  83   52   81 1
  84   52   82 1
  85   52   83 1

#	End of record

