#	Name: ASD01918552
#	Creating user name:	WinNT
#	Creation time:	15. 06. 2019 20:11

#	Modifying user name:	WinNT
#	Modification time:	15. 06. 2019 20:11

#	Program:	/corina/corina34_cracker 3.40 0067  02.08.2006

@<TRIPOS>MOLECULE
ASD01918552
  38   41    0    0    0
SMALL
NO_CHARGES


@<TRIPOS>ATOM
   1 H1             1.9915     3.8951     0.2889 H       
   2 C2             1.1179     3.2607     0.2596 C.ar    
   3 N3            -0.0824     3.8066     0.2272 N.ar    
   4 C4            -1.1805     3.0679     0.1902 C.ar    
   5 N5            -2.4279     3.6870     0.1569 N.am    
   6 C6            -2.5187     5.0268     0.2722 C.2     
   7 O7            -1.5218     5.6868     0.4963 O.2     
   8 C8            -3.8240     5.6912     0.1269 C.2     
   9 C9            -3.9361     7.0716     0.2367 C.2     
  10 C10           -5.1945     7.6703     0.0922 C.2     
  11 O11           -5.3095     9.0216     0.1989 O.3     
  12 C12           -5.0739     9.5881     1.4114 C.ar    
  13 C13           -5.2663    10.9491     1.6012 C.ar    
  14 N14           -5.0390    11.5044     2.7750 N.ar    
  15 C15           -4.6240    10.7991     3.8087 C.ar    
  16 C16           -4.4091     9.4353     3.6979 C.ar    
  17 F17           -3.9838     8.7212     4.7630 F       
  18 C18           -4.6420     8.8107     2.4813 C.ar    
  19 C19           -6.2992     6.9241    -0.1527 C.2     
  20 N20           -6.2346     5.5673    -0.2679 N.pl3   
  21 C21           -7.1859     4.6114    -0.5078 C.2     
  22 C22           -6.5566     3.4172    -0.5181 C.2     
  23 N23           -5.2544     3.6196    -0.2920 N.2     
  24 C24           -5.0363     4.9136    -0.1433 C.2     
  25 C25           -1.0999     1.6800     0.1839 C.ar    
  26 H26           -1.9973     1.0798     0.1530 H       
  27 C27            0.1457     1.0780     0.2173 C.ar    
  28 H28            0.2393     0.0020     0.2129 H       
  29 C29            1.2722     1.8882     0.2507 C.ar    
  30 H30            2.2590     1.4500     0.2729 H       
  31 H31           -3.2313     3.1538     0.0507 H       
  32 H32           -3.0629     7.6765     0.4317 H       
  33 H33           -5.6057    11.5603     0.7781 H       
  34 H34           -4.4491    11.2912     4.7540 H       
  35 H35           -4.4874     7.7480     2.3662 H       
  36 H36           -7.2544     7.4166    -0.2588 H       
  37 H37           -8.2416     4.7813    -0.6596 H       
  38 H38           -7.0265     2.4585    -0.6812 H       
@<TRIPOS>BOND
   1    1    2 1
   2    2   29 ar
   3    2    3 ar
   4    3    4 ar
   5    4    5 1
   6    4   25 ar
   7    5    6 am
   8    5   31 1
   9    6    7 2
  10    6    8 1
  11    8   24 1
  12    8    9 2
  13    9   10 1
  14    9   32 1
  15   10   11 1
  16   10   19 2
  17   11   12 1
  18   12   18 ar
  19   12   13 ar
  20   13   14 ar
  21   13   33 1
  22   14   15 ar
  23   15   16 ar
  24   15   34 1
  25   16   17 1
  26   16   18 ar
  27   18   35 1
  28   19   20 1
  29   19   36 1
  30   20   24 1
  31   20   21 1
  32   21   22 2
  33   21   37 1
  34   22   23 1
  35   22   38 1
  36   23   24 2
  37   25   26 1
  38   25   27 ar
  39   27   28 1
  40   27   29 ar
  41   29   30 1

#	End of record

