#	Name: ASD02690087
#	Creating user name:	WinNT
#	Creation time:	15. 06. 2019 20:26

#	Modifying user name:	WinNT
#	Modification time:	15. 06. 2019 20:26

#	Program:	/corina/corina34_cracker 3.40 0067  02.08.2006

@<TRIPOS>MOLECULE
ASD02690087
  57   58    0    0    0
SMALL
NO_CHARGES


@<TRIPOS>ATOM
   1 Cl1            0.0000     0.0000     0.0000 Cl      
   2 H2             0.0000     1.3700     0.0000 H       
   3 C3             5.5272    23.0085    12.8516 C.3     
   4 O4             5.5466    21.5797    12.8437 O.3     
   5 C5             6.1503    20.9766    11.7859 C.ar    
   6 C6             6.7174    21.7467    10.7793 C.ar    
   7 C7             7.3336    21.1399     9.6996 C.ar    
   8 C8             7.3890    19.7647     9.6145 C.ar    
   9 C9             6.8209    18.9794    10.6231 C.ar    
  10 C10            6.2043    19.5952    11.7159 C.ar    
  11 C11            6.8775    17.5112    10.5369 C.2     
  12 O12            6.3842    16.8331    11.4126 O.2     
  13 C13            7.5485    16.8508     9.3602 C.3     
  14 C14            7.4688    15.3307     9.5147 C.3     
  15 C15            8.1500    14.6603     8.3200 C.3     
  16 N16            8.0735    13.2008     8.4683 N.3     
  17 C17            8.4317    12.7909     9.8322 C.3     
  18 C18            8.2013    11.2864     9.9912 C.3     
  19 C19            9.0584    10.5330     8.9702 C.3     
  20 C20            8.7868     9.0316     9.0833 C.3     
  21 C21            9.7181     8.2822     8.1656 C.ar    
  22 C22            9.3420     8.0226     6.8609 C.ar    
  23 C23           10.1962     7.3352     6.0191 C.ar    
  24 C24           11.4267     6.9077     6.4818 C.ar    
  25 C25           11.8031     7.1680     7.7862 C.ar    
  26 C26           10.9507     7.8592     8.6267 C.ar    
  27 C27            8.6997    11.0132     7.5612 C.3     
  28 C28            8.9156    12.5257     7.4726 C.3     
  29 H29            6.5498    23.3858    12.8439 H       
  30 H30            5.0000    23.3696    11.9685 H       
  31 H31            5.0170    23.3600    13.7484 H       
  32 H32            6.6769    22.8243    10.8394 H       
  33 H33            7.7725    21.7454     8.9204 H       
  34 H34            7.8703    19.2944     8.7698 H       
  35 H35            5.7675    18.9952    12.5005 H       
  36 H36            7.0455    17.1494     8.4404 H       
  37 H37            8.5937    17.1575     9.3187 H       
  38 H38            7.9718    15.0321    10.4344 H       
  39 H39            6.4236    15.0241     9.5561 H       
  40 H40            7.6470    14.9589     7.4003 H       
  41 H41            9.1952    14.9669     8.2786 H       
  42 H42            9.4816    13.0190    10.0161 H       
  43 H43            7.8121    13.3309    10.5482 H       
  44 H44            8.4821    10.9797    10.9988 H       
  45 H45            7.1489    11.0593     9.8211 H       
  46 H46           10.1129    10.7282     9.1651 H       
  47 H47            8.9521     8.7089    10.1112 H       
  48 H48            7.7545     8.8267     8.7997 H       
  49 H49            8.3807     8.3566     6.4994 H       
  50 H50            9.9021     7.1318     5.0000 H       
  51 H51           12.0938     6.3700     5.8243 H       
  52 H52           12.7643     6.8337     8.1478 H       
  53 H53           11.2463     8.0659     9.6447 H       
  54 H54            9.3365    10.5114     6.8326 H       
  55 H55            7.6552    10.7819     7.3528 H       
  56 H56            8.6475    12.8730     6.4748 H       
  57 H57            9.9632    12.7551     7.6675 H       
@<TRIPOS>BOND
   1    1    2 1
   2    3    4 1
   3    3   29 1
   4    3   30 1
   5    3   31 1
   6    4    5 1
   7    5   10 ar
   8    5    6 ar
   9    6    7 ar
  10    6   32 1
  11    7    8 ar
  12    7   33 1
  13    8    9 ar
  14    8   34 1
  15    9   10 ar
  16    9   11 1
  17   10   35 1
  18   11   12 2
  19   11   13 1
  20   13   14 1
  21   13   36 1
  22   13   37 1
  23   14   15 1
  24   14   38 1
  25   14   39 1
  26   15   16 1
  27   15   40 1
  28   15   41 1
  29   16   28 1
  30   16   17 1
  31   17   18 1
  32   17   42 1
  33   17   43 1
  34   18   19 1
  35   18   44 1
  36   18   45 1
  37   19   20 1
  38   19   27 1
  39   19   46 1
  40   20   21 1
  41   20   47 1
  42   20   48 1
  43   21   26 ar
  44   21   22 ar
  45   22   23 ar
  46   22   49 1
  47   23   24 ar
  48   23   50 1
  49   24   25 ar
  50   24   51 1
  51   25   26 ar
  52   25   52 1
  53   26   53 1
  54   27   28 1
  55   27   54 1
  56   27   55 1
  57   28   56 1
  58   28   57 1

#	End of record

