#	Name: ASD07931765
#	Creating user name:	WinNT
#	Creation time:	15. 06. 2019 21:13

#	Modifying user name:	WinNT
#	Modification time:	15. 06. 2019 21:13

#	Program:	/corina/corina34_cracker 3.40 0067  02.08.2006

@<TRIPOS>MOLECULE
ASD07931765
  65   68    0    0    0
SMALL
NO_CHARGES


@<TRIPOS>ATOM
   1 C1             0.0348     1.5110     0.2427 C.2     
   2 C2             0.0098     0.0316     0.2305 C.2     
   3 N3             1.2315     2.1520     0.0144 N.am    
   4 N4             1.1676    -0.6384     0.4439 N.am    
   5 C5             2.3905     0.1311     0.7132 C.3     
   6 C6             2.4273     1.3366    -0.2379 C.3     
   7 C7            -1.1059     2.2176     0.4700 C.2     
   8 C8            -1.0868     3.6178     0.4845 C.2     
   9 C9             0.0919     4.2776     0.2687 C.2     
  10 C10            1.3048     3.4943     0.0206 C.2     
  11 O11           -1.0282    -0.5700     0.0333 O.2     
  12 O12            2.3696     4.0540    -0.1781 O.2     
  13 C13            1.2002    -2.1026     0.4064 C.3     
  14 C14            1.6492    -2.5674    -0.9804 C.3     
  15 C15            1.8541    -4.0845    -0.9689 C.3     
  16 C16            0.5198    -4.7697    -0.6583 C.3     
  17 C17           -0.5199    -4.3315    -1.6942 C.3     
  18 C18           -0.6332    -2.8048    -1.6778 C.3     
  19 O19            0.6482    -2.2306    -1.9431 O.3     
  20 C20           -1.6111    -2.3620    -2.7354 C.ar    
  21 C21           -2.9074    -2.0342    -2.3845 C.ar    
  22 C22           -3.8044    -1.6281    -3.3546 C.ar    
  23 C23           -3.4051    -1.5492    -4.6757 C.ar    
  24 C24           -2.1085    -1.8761    -5.0265 C.ar    
  25 C25           -1.2103    -2.2781    -4.0557 C.ar    
  26 C26           -4.3833    -1.1074    -5.7335 C.3     
  27 F27           -4.3202     0.2830    -5.8754 F       
  28 F28           -4.0597    -1.7156    -6.9511 F       
  29 F29           -5.6780    -1.4793    -5.3559 F       
  30 C30            0.8024     6.4551     1.1704 C.2     
  31 N31            0.6077     7.7061     0.8536 N.2     
  32 C32           -0.1756     7.7729    -0.2334 C.2     
  33 C33           -0.4814     6.5167    -0.6095 C.2     
  34 N34            0.1371     5.6746     0.2787 N.pl3   
  35 C35           -0.6345     9.0359    -0.9155 C.3     
  36 H36            2.3839     0.4796     1.7460 H       
  37 H37            3.2642    -0.4976     0.5414 H       
  38 H38            2.4256     0.9904    -1.2715 H       
  39 H39            3.3230     1.9281    -0.0484 H       
  40 H40           -2.0347     1.6935     0.6405 H       
  41 H41           -1.9959     4.1725     0.6643 H       
  42 H42            1.9002    -2.4697     1.1569 H       
  43 H43            0.2046    -2.4937     0.6160 H       
  44 H44            2.5860    -2.0760    -1.2430 H       
  45 H45            2.2128    -4.4110    -1.9450 H       
  46 H46            2.5853    -4.3474    -0.2044 H       
  47 H47            0.6462    -5.8514    -0.7037 H       
  48 H48            0.1853    -4.4819     0.3384 H       
  49 H49           -0.2092    -4.6630    -2.6850 H       
  50 H50           -1.4866    -4.7711    -1.4486 H       
  51 H51           -0.9829    -2.4768    -0.6989 H       
  52 H52           -3.2194    -2.0958    -1.3524 H       
  53 H53           -4.8173    -1.3727    -3.0806 H       
  54 H54           -1.7966    -1.8148    -6.0587 H       
  55 H55           -0.1963    -2.5299    -4.3293 H       
  56 H56            1.3965     6.0997     1.9993 H       
  57 H57           -1.0959     6.2278    -1.4493 H       
  58 H58            0.0876     9.3179    -1.6818 H       
  59 H59           -1.6071     8.8665    -1.3775 H       
  60 H60           -0.7158     9.8368    -0.1806 H       
  61 C61            9.2655    16.0449     7.0066 C.2     
  62 O62            9.2819    14.8368     7.0000 O.2     
  63 O63           10.4187    16.7318     6.9993 O.3     
  64 H64            8.3230    16.5722     7.0140 H       
  65 H65           10.3550    17.6967     7.0051 H       
@<TRIPOS>BOND
   1    1    2 1
   2    1    3 1
   3    1    7 2
   4    2    4 am
   5    2   11 2
   6    3    6 1
   7    3   10 am
   8    4    5 1
   9    4   13 1
  10    5    6 1
  11    5   36 1
  12    5   37 1
  13    6   38 1
  14    6   39 1
  15    7    8 1
  16    7   40 1
  17    8    9 2
  18    8   41 1
  19    9   10 1
  20    9   34 1
  21   10   12 2
  22   13   14 1
  23   13   42 1
  24   13   43 1
  25   14   15 1
  26   14   19 1
  27   14   44 1
  28   15   16 1
  29   15   45 1
  30   15   46 1
  31   16   17 1
  32   16   47 1
  33   16   48 1
  34   17   18 1
  35   17   49 1
  36   17   50 1
  37   18   19 1
  38   18   20 1
  39   18   51 1
  40   20   21 ar
  41   20   25 ar
  42   21   22 ar
  43   21   52 1
  44   22   23 ar
  45   22   53 1
  46   23   24 ar
  47   23   26 1
  48   24   25 ar
  49   24   54 1
  50   25   55 1
  51   26   27 1
  52   26   28 1
  53   26   29 1
  54   30   31 2
  55   30   34 1
  56   30   56 1
  57   31   32 1
  58   32   33 2
  59   32   35 1
  60   33   34 1
  61   33   57 1
  62   35   58 1
  63   35   59 1
  64   35   60 1
  65   61   62 2
  66   61   63 1
  67   61   64 1
  68   63   65 1

#	End of record

