#	Name: ASD06170220
#	Creating user name:	WinNT
#	Creation time:	15. 06. 2019 21:05

#	Modifying user name:	WinNT
#	Modification time:	15. 06. 2019 21:05

#	Program:	/corina/corina34_cracker 3.40 0067  02.08.2006

@<TRIPOS>MOLECULE
ASD06170220
  78   83    0    0    0
SMALL
NO_CHARGES


@<TRIPOS>ATOM
   1 C1             0.0385     1.3230    -0.1845 C.2     
   2 C2             0.0508    -0.0546    -0.5084 C.2     
   3 C3             1.2791    -0.6634    -0.8217 C.2     
   4 C4             2.4471     0.1210    -0.8009 C.2     
   5 C5             2.3742     1.4324    -0.4841 C.2     
   6 N6             1.1888     2.0219    -0.1812 N.am    
   7 C7            -1.1921    -0.8316    -0.5166 C.2     
   8 O8            -1.1995    -1.9631    -0.9648 O.2     
   9 N9            -2.3268    -0.2931    -0.0278 N.am    
  10 N10            1.3377    -1.9994    -1.1419 N.pl3   
  11 C11            3.8883    -4.7137    -1.8375 C.3     
  12 C12            2.6001    -4.0918    -1.2923 C.3     
  13 C13            2.6003    -2.5898    -1.5931 C.3     
  14 C14            2.7520    -2.3828    -3.1032 C.3     
  15 C15            4.0344    -3.0708    -3.5785 C.3     
  16 O16            3.9825    -4.4582    -3.2403 O.3     
  17 O17           -1.0132     1.8771     0.0862 O.2     
  18 C18           -3.5285    -0.9950    -0.1210 C.ar    
  19 C19           -3.5074    -2.3729    -0.3060 C.ar    
  20 C20           -4.7047    -3.0592    -0.3967 C.ar    
  21 C21           -5.8921    -2.3377    -0.2984 C.ar    
  22 C22           -5.8361    -0.9655    -0.1143 C.ar    
  23 N23           -4.6761    -0.3430    -0.0271 N.ar    
  24 O24           -7.0917    -2.9722    -0.3826 O.3     
  25 N25           -8.4568    -4.9405     2.9750 N.ar    
  26 C26           -7.2779    -4.3640     2.9815 C.ar    
  27 C27           -6.7850    -3.6918     1.8702 C.ar    
  28 C28           -7.5470    -3.6212     0.7173 C.ar    
  29 C29           -8.8145    -4.2458     0.7217 C.ar    
  30 C30           -9.6440    -4.2167    -0.4094 C.ar    
  31 C31          -10.8623    -4.8310    -0.3696 C.ar    
  32 C32          -11.2929    -5.4906     0.7904 C.ar    
  33 C33          -10.5058    -5.5335     1.9050 C.ar    
  34 C34           -9.2466    -4.9111     1.8948 C.ar    
  35 O35          -12.5100    -6.0947     0.8055 O.3     
  36 C36          -12.8937    -6.7506     2.0157 C.3     
  37 O37          -11.6666    -4.8025    -1.4656 O.3     
  38 C38          -11.1715    -4.1144    -2.6160 C.3     
  39 C39            1.1616     3.4473     0.1560 C.3     
  40 C40            1.3430     3.6154     1.6425 C.ar    
  41 C41            2.6124     3.7510     2.1729 C.ar    
  42 C42            2.7789     3.9052     3.5365 C.ar    
  43 C43            1.6760     3.9243     4.3697 C.ar    
  44 C44            0.4066     3.7896     3.8392 C.ar    
  45 C45            0.2398     3.6397     2.4751 C.ar    
  46 H46            3.4017    -0.3251    -1.0377 H       
  47 H47            3.2776     2.0241    -0.4710 H       
  48 H48           -2.3077     0.5827     0.3888 H       
  49 H49            0.5431    -2.5510    -1.0690 H       
  50 H50            4.7471    -4.2748    -1.3296 H       
  51 H51            3.8742    -5.7898    -1.6641 H       
  52 H52            1.7392    -4.5590    -1.7706 H       
  53 H53            2.5481    -4.2474    -0.2147 H       
  54 H54            3.4317    -2.1140    -1.0732 H       
  55 H55            1.8942    -2.8155    -3.6182 H       
  56 H56            2.8087    -1.3163    -3.3208 H       
  57 H57            4.1255    -2.9632    -4.6593 H       
  58 H58            4.8951    -2.6103    -3.0934 H       
  59 H59           -2.5678    -2.9006    -0.3783 H       
  60 H60           -4.7187    -4.1294    -0.5406 H       
  61 H61           -6.7527    -0.3994    -0.0377 H       
  62 H62           -6.6745    -4.4128     3.8759 H       
  63 H63           -5.8109    -3.2267     1.9057 H       
  64 H64           -9.3204    -3.7106    -1.3069 H       
  65 H65          -10.8503    -6.0445     2.7919 H       
  66 H66          -12.1741    -7.5359     2.2473 H       
  67 H67          -12.9161    -6.0265     2.8301 H       
  68 H68          -13.8837    -7.1898     1.8927 H       
  69 H69          -11.9092    -4.1674    -3.4166 H       
  70 H70          -10.9847    -3.0708    -2.3627 H       
  71 H71          -10.2429    -4.5800    -2.9462 H       
  72 H72            1.9675     3.9602    -0.3688 H       
  73 H73            0.2040     3.8733    -0.1437 H       
  74 H74            3.4740     3.7361     1.5219 H       
  75 H75            3.7706     4.0104     3.9509 H       
  76 H76            1.8061     4.0440     5.4351 H       
  77 H77           -0.4550     3.8041     4.4902 H       
  78 H78           -0.7521     3.5382     2.0603 H       
@<TRIPOS>BOND
   1    1    2 1
   2    1    6 am
   3    1   17 2
   4    2    3 2
   5    2    7 1
   6    3    4 1
   7    3   10 1
   8    4    5 2
   9    4   46 1
  10    5    6 1
  11    5   47 1
  12    6   39 1
  13    7    8 2
  14    7    9 am
  15    9   18 1
  16    9   48 1
  17   10   13 1
  18   10   49 1
  19   11   12 1
  20   11   16 1
  21   11   50 1
  22   11   51 1
  23   12   13 1
  24   12   52 1
  25   12   53 1
  26   13   14 1
  27   13   54 1
  28   14   15 1
  29   14   55 1
  30   14   56 1
  31   15   16 1
  32   15   57 1
  33   15   58 1
  34   18   19 ar
  35   18   23 ar
  36   19   20 ar
  37   19   59 1
  38   20   21 ar
  39   20   60 1
  40   21   22 ar
  41   21   24 1
  42   22   23 ar
  43   22   61 1
  44   24   28 1
  45   25   26 ar
  46   25   34 ar
  47   26   27 ar
  48   26   62 1
  49   27   28 ar
  50   27   63 1
  51   28   29 ar
  52   29   30 ar
  53   29   34 ar
  54   30   31 ar
  55   30   64 1
  56   31   32 ar
  57   31   37 1
  58   32   33 ar
  59   32   35 1
  60   33   34 ar
  61   33   65 1
  62   35   36 1
  63   36   66 1
  64   36   67 1
  65   36   68 1
  66   37   38 1
  67   38   69 1
  68   38   70 1
  69   38   71 1
  70   39   40 1
  71   39   72 1
  72   39   73 1
  73   40   41 ar
  74   40   45 ar
  75   41   42 ar
  76   41   74 1
  77   42   43 ar
  78   42   75 1
  79   43   44 ar
  80   43   76 1
  81   44   45 ar
  82   44   77 1
  83   45   78 1

#	End of record

