#	Name: ASD01881171
#	Creating user name:	WinNT
#	Creation time:	15. 06. 2019 19:42

#	Modifying user name:	WinNT
#	Modification time:	15. 06. 2019 19:42

#	Program:	/corina/corina34_cracker 3.40 0067  02.08.2006

@<TRIPOS>MOLECULE
ASD01881171
  58   61    0    0    0
SMALL
NO_CHARGES


@<TRIPOS>ATOM
   1 Cl1            7.6068     4.2479     2.7340 Cl      
   2 N2             0.0645     1.3750    -0.6397 N.ar    
   3 C3             0.1102     0.0791    -0.8728 C.ar    
   4 N4             1.2172    -0.6174    -0.7103 N.ar    
   5 C5             2.3355    -0.0351    -0.3031 C.ar    
   6 C6             2.3333     1.3233    -0.0471 C.ar    
   7 C7             1.1452     2.0292    -0.2289 C.ar    
   8 C8             3.5841     2.0235     0.4180 C.3     
   9 O9             4.3203     2.4867    -0.7157 O.3     
  10 C10            5.4820     3.1438    -0.4695 C.ar    
  11 C11            6.2482     3.6216    -1.5287 C.ar    
  12 C12            7.4227     4.2864    -1.2795 C.ar    
  13 C13            7.8570     4.4881     0.0351 C.ar    
  14 C14            7.0832     4.0067     1.0965 C.ar    
  15 C15            5.9018     3.3436     0.8394 C.ar    
  16 C16            8.4630     4.9154    -2.1725 C.3     
  17 N17            9.4870     5.4706    -1.2801 N.am    
  18 C18            9.1330     5.2216    -0.0077 C.2     
  19 O19            9.7754     5.5545     0.9695 O.2     
  20 O20            1.0937     3.3624     0.0088 O.3     
  21 C21           -0.1134     3.9802    -0.0809 C.ar    
  22 C22           -1.0446     3.8374     0.9377 C.ar    
  23 C23           -2.2707     4.4669     0.8443 C.ar    
  24 C24           -2.5703     5.2388    -0.2631 C.ar    
  25 C25           -1.6441     5.3827    -1.2795 C.ar    
  26 C26           -0.4146     4.7596    -1.1886 C.ar    
  27 C27           -1.1959    -0.6055    -2.8664 C.3     
  28 C28           -1.1377    -0.6263    -1.3377 C.3     
  29 C29            4.3847    -0.8587    -1.4308 C.3     
  30 C30            3.5941    -0.8437    -0.1210 C.3     
  31 C31           10.3991     7.6775    -1.8087 C.3     
  32 C32           10.6959     6.1801    -1.7060 C.3     
  33 H33            3.3133     2.8717     1.0467 H       
  34 H34            4.1981     1.3283     0.9906 H       
  35 H35            5.9189     3.4690    -2.5459 H       
  36 H36            5.3043     2.9718     1.6587 H       
  37 H37            8.9033     4.1608    -2.8243 H       
  38 H38            8.0143     5.7103    -2.7684 H       
  39 H39           -0.8112     3.2343     1.8027 H       
  40 H40           -2.9960     4.3558     1.6368 H       
  41 H41           -3.5296     5.7298    -0.3343 H       
  42 H42           -1.8807     5.9859    -2.1436 H       
  43 H43            0.3087     4.8726    -1.9826 H       
  44 H44           -2.0985    -1.1157    -3.2026 H       
  45 H45           -1.2108     0.4270    -3.2154 H       
  46 H46           -0.3199    -1.1129    -3.2703 H       
  47 H47           -1.1228    -1.6589    -0.9887 H       
  48 H48           -2.0137    -0.1189    -0.9338 H       
  49 H49            4.6458     0.1622    -1.7093 H       
  50 H50            5.2950    -1.4436    -1.2991 H       
  51 H51            3.7764    -1.3055    -2.2173 H       
  52 H52            4.2024    -0.3969     0.6654 H       
  53 H53            3.3329    -1.8647     0.1575 H       
  54 H54            9.6057     7.8414    -2.5379 H       
  55 H55           10.0814     8.0525    -0.8357 H       
  56 H56           11.2986     8.2053    -2.1255 H       
  57 H57           11.4893     6.0161    -0.9767 H       
  58 H58           11.0135     5.8051    -2.6789 H       
@<TRIPOS>BOND
   1    1   14 1
   2    2    3 ar
   3    2    7 ar
   4    3    4 ar
   5    3   28 1
   6    4    5 ar
   7    5    6 ar
   8    5   30 1
   9    6    7 ar
  10    6    8 1
  11    7   20 1
  12    8    9 1
  13    8   33 1
  14    8   34 1
  15    9   10 1
  16   10   11 ar
  17   10   15 ar
  18   11   12 ar
  19   11   35 1
  20   12   13 ar
  21   12   16 1
  22   13   14 ar
  23   13   18 1
  24   14   15 ar
  25   15   36 1
  26   16   17 1
  27   16   37 1
  28   16   38 1
  29   17   18 am
  30   17   32 1
  31   18   19 2
  32   20   21 1
  33   21   22 ar
  34   21   26 ar
  35   22   23 ar
  36   22   39 1
  37   23   24 ar
  38   23   40 1
  39   24   25 ar
  40   24   41 1
  41   25   26 ar
  42   25   42 1
  43   26   43 1
  44   27   28 1
  45   27   44 1
  46   27   45 1
  47   27   46 1
  48   28   47 1
  49   28   48 1
  50   29   30 1
  51   29   49 1
  52   29   50 1
  53   29   51 1
  54   30   52 1
  55   30   53 1
  56   31   32 1
  57   31   54 1
  58   31   55 1
  59   31   56 1
  60   32   57 1
  61   32   58 1

#	End of record

