#	Name: ASD01230814
#	Creating user name:	WinNT
#	Creation time:	15. 06. 2019 19:15

#	Modifying user name:	WinNT
#	Modification time:	15. 06. 2019 19:15

#	Program:	/corina/corina34_cracker 3.40 0067  02.08.2006

@<TRIPOS>MOLECULE
ASD01230814
  29   31    0    0    0
SMALL
NO_CHARGES


@<TRIPOS>ATOM
   1 C1            -0.0166     1.3738     0.0096 C.2     
   2 C2             0.0021    -0.0041     0.0020 C.2     
   3 C3            -1.2144    -0.7000     0.0078 C.2     
   4 C4            -2.3849    -0.0391     0.0095 C.2     
   5 N5            -2.4623     1.3311     0.0003 N.pl3   
   6 C6            -1.3175     2.0758     0.0320 C.2     
   7 C7            -3.8099     1.9042    -0.0504 C.3     
   8 C8            -3.8786     3.1898     0.7791 C.3     
   9 S9            -2.6223     4.3260     0.1117 S.o2    
  10 N10           -1.2621     3.3846     0.0819 N.am    
  11 C11            1.2497     2.1411     0.0016 C.ar    
  12 O12           -2.8866     4.6254    -1.2520 O.2     
  13 O13           -2.3219     5.3519     1.0480 O.2     
  14 C14            2.1115     2.0798    -1.0995 C.ar    
  15 C15            3.2819     2.8155    -1.0583 C.ar    
  16 C16            3.5613     3.5823     0.0608 C.ar    
  17 N17            2.7293     3.6200     1.0848 N.ar    
  18 C18            1.6003     2.9411     1.0886 C.ar    
  19 Cl19           5.0289     4.5077     0.1179 Cl      
  20 H20            0.9399    -0.5395    -0.0086 H       
  21 H21           -1.2113    -1.7800     0.0105 H       
  22 H22           -3.3018    -0.6096     0.0181 H       
  23 H23           -4.0659     2.1301    -1.0855 H       
  24 H24           -4.5231     1.1817     0.3464 H       
  25 H25           -4.8687     3.6369     0.6899 H       
  26 H26           -3.6623     2.9694     1.8244 H       
  27 H27            1.8688     1.4731    -1.9595 H       
  28 H28            3.9708     2.7921    -1.8897 H       
  29 H29            0.9447     2.9974     1.9451 H       
@<TRIPOS>BOND
   1    1    2 2
   2    1   11 1
   3    1    6 1
   4    2    3 1
   5    2   20 1
   6    3    4 2
   7    3   21 1
   8    4    5 1
   9    4   22 1
  10    5    6 1
  11    5    7 1
  12    6   10 2
  13    7    8 1
  14    7   23 1
  15    7   24 1
  16    8    9 1
  17    8   25 1
  18    8   26 1
  19    9   10 am
  20    9   12 2
  21    9   13 2
  22   11   14 ar
  23   11   18 ar
  24   14   15 ar
  25   14   27 1
  26   15   16 ar
  27   15   28 1
  28   16   17 ar
  29   16   19 1
  30   17   18 ar
  31   18   29 1

#	End of record

