#	Name: ASD01810994
#	Creating user name:	WinNT
#	Creation time:	15. 06. 2019 19:25

#	Modifying user name:	WinNT
#	Modification time:	15. 06. 2019 19:25

#	Program:	/corina/corina34_cracker 3.40 0067  02.08.2006

@<TRIPOS>MOLECULE
ASD01810994
  64   68    0    0    0
SMALL
NO_CHARGES


@<TRIPOS>ATOM
   1 C1            -7.3570     2.2254    -3.9971 C.1     
   2 C2            -6.3760     3.0160    -3.3165 C.ar    
   3 C3            -5.2072     2.4223    -2.8359 C.ar    
   4 C4            -4.2664     3.1899    -2.1812 C.ar    
   5 C5            -4.4791     4.5450    -1.9999 C.ar    
   6 C6            -5.6353     5.1397    -2.4732 C.ar    
   7 C7            -6.5813     4.3853    -3.1356 C.ar    
   8 N8            -8.1352     1.5982    -4.5369 N.1     
   9 N9            -2.4213     7.7924    -0.2279 N.am    
  10 C10           -1.8686     7.3012    -1.4975 C.3     
  11 C11           -2.9423     6.4792    -2.2174 C.3     
  12 C12           -3.4470     5.3770    -1.2833 C.3     
  13 C13           -4.0756     6.0086    -0.0391 C.3     
  14 C14           -3.0147     6.8253     0.7055 C.3     
  15 C15           -2.3796     9.1045     0.0772 C.2     
  16 C16           -3.0220     9.5966     1.3148 C.ar    
  17 C17           -3.9802    10.6109     1.2505 C.ar    
  18 C18           -4.5809    11.0713     2.4050 C.ar    
  19 C19           -4.2398    10.5330     3.6302 C.ar    
  20 C20           -3.2839     9.5183     3.7087 C.ar    
  21 C21           -2.6772     9.0456     2.5470 C.ar    
  22 O22           -1.8138     9.8834    -0.6649 O.2     
  23 N23           -2.8705     8.5838     7.1172 N.2     
  24 N24           -3.4119     9.2885     6.1887 N.2     
  25 C25           -2.9195     8.9434     5.0218 C.2     
  26 N26           -2.0017     7.9467     5.2509 N.pl3   
  27 C27           -2.0017     7.7482     6.5997 C.2     
  28 O28           -1.2446     6.8538     7.2796 O.3     
  29 O29           -2.0102     5.0970    10.2673 O.3     
  30 C30           -2.4814     5.7813     9.1005 C.3     
  31 C31           -1.4059     6.8135     8.6989 C.3     
  32 C32           -0.1327     6.2465     9.3840 C.3     
  33 C33           -0.7397     5.6324    10.6706 C.3     
  34 C34           -4.9004    11.0423     4.8853 C.3     
  35 C35           -4.3587    11.2043    -0.0821 C.3     
  36 H36           -5.0402     1.3646    -2.9761 H       
  37 H37           -3.3619     2.7320    -1.8089 H       
  38 H38           -5.7951     6.1979    -2.3281 H       
  39 H39           -7.4811     4.8516    -3.5088 H       
  40 H40           -1.5769     8.1467    -2.1205 H       
  41 H41           -0.9997     6.6737    -1.2994 H       
  42 H42           -3.7723     7.1287    -2.4954 H       
  43 H43           -2.5158     6.0292    -3.1139 H       
  44 H44           -2.6120     4.7426    -0.9858 H       
  45 H45           -4.8949     6.6626    -0.3376 H       
  46 H46           -4.4557     5.2238     0.6148 H       
  47 H47           -2.2393     6.1590     1.0833 H       
  48 H48           -3.4792     7.3568     1.5361 H       
  49 H49           -5.3207    11.8563     2.3499 H       
  50 H50           -1.9402     8.2581     2.6019 H       
  51 H51           -1.4652     7.4813     4.5903 H       
  52 H52           -2.6313     5.0688     8.2893 H       
  53 H53           -3.4183     6.2914     9.3241 H       
  54 H54           -1.6521     7.8015     9.0878 H       
  55 H55            0.3373     5.4805     8.7671 H       
  56 H56            0.5722     7.0426     9.6235 H       
  57 H57           -0.8774     6.4030    11.4290 H       
  58 H58           -0.0974     4.8376    11.0499 H       
  59 H59           -5.8001    10.4600     5.0843 H       
  60 H60           -4.2113    10.9442     5.7241 H       
  61 H61           -5.1677    12.0910     4.7554 H       
  62 H62           -5.1274    10.5884    -0.5489 H       
  63 H63           -4.7421    12.2139     0.0655 H       
  64 H64           -3.4805    11.2397    -0.7267 H       
@<TRIPOS>BOND
   1    1    2 1
   2    1    8 3
   3    2    3 ar
   4    2    7 ar
   5    3    4 ar
   6    3   36 1
   7    4    5 ar
   8    4   37 1
   9    5    6 ar
  10    5   12 1
  11    6    7 ar
  12    6   38 1
  13    7   39 1
  14    9   10 1
  15    9   14 1
  16    9   15 am
  17   10   11 1
  18   10   40 1
  19   10   41 1
  20   11   12 1
  21   11   42 1
  22   11   43 1
  23   12   13 1
  24   12   44 1
  25   13   14 1
  26   13   45 1
  27   13   46 1
  28   14   47 1
  29   14   48 1
  30   15   16 1
  31   15   22 2
  32   16   17 ar
  33   16   21 ar
  34   17   18 ar
  35   17   35 1
  36   18   19 ar
  37   18   49 1
  38   19   20 ar
  39   19   34 1
  40   20   21 ar
  41   20   25 1
  42   21   50 1
  43   23   24 1
  44   23   27 2
  45   24   25 2
  46   25   26 1
  47   26   27 1
  48   26   51 1
  49   27   28 1
  50   28   31 1
  51   29   30 1
  52   29   33 1
  53   30   31 1
  54   30   52 1
  55   30   53 1
  56   31   32 1
  57   31   54 1
  58   32   33 1
  59   32   55 1
  60   32   56 1
  61   33   57 1
  62   33   58 1
  63   34   59 1
  64   34   60 1
  65   34   61 1
  66   35   62 1
  67   35   63 1
  68   35   64 1

#	End of record

