#	Name: ASD02030123
#	Creating user name:	WinNT
#	Creation time:	15. 06. 2019 20:14

#	Modifying user name:	WinNT
#	Modification time:	15. 06. 2019 20:14

#	Program:	/corina/corina34_cracker 3.40 0067  02.08.2006

@<TRIPOS>MOLECULE
ASD02030123
  52   55    0    0    0
SMALL
NO_CHARGES


@<TRIPOS>ATOM
   1 N1            -0.2118     1.4222    -0.1397 N.am    
   2 C2            -0.0216    -0.0114     0.1222 C.3     
   3 C3            -0.9186    -0.4180     1.2979 C.3     
   4 N4            -2.2775     0.0819     1.0466 N.am    
   5 C5            -2.4677     1.5155     0.7847 C.3     
   6 C6            -1.5714     1.9230    -0.3854 C.3     
   7 C7             0.8412     2.2635    -0.1487 C.2     
   8 C8             2.1836     1.7715     0.2274 C.2     
   9 N9             3.2622     2.5085     0.3826 N.2     
  10 N10            2.5162     0.4917     0.4770 N.2     
  11 C11            3.7905     0.4719     0.7742 C.2     
  12 N12            4.2436     1.7408     0.7110 N.pl3   
  13 O13            0.6870     3.4267    -0.4662 O.2     
  14 C14           -3.3305    -0.7593     1.0557 C.2     
  15 C15           -4.7026    -0.2278     0.9116 C.ar    
  16 O16           -3.1521    -1.9550     1.1823 O.2     
  17 C17           -1.5447     3.4481    -0.5048 C.3     
  18 C18           -2.1092     1.3124    -1.6811 C.3     
  19 C19            5.5593     2.1543     0.9601 C.ar    
  20 C20            5.8971     3.4974     0.8605 C.ar    
  21 C21            7.1946     3.9017     1.1065 C.ar    
  22 C22            8.1570     2.9704     1.4512 C.ar    
  23 C23            7.8236     1.6321     1.5512 C.ar    
  24 C24            6.5264     1.2224     1.3124 C.ar    
  25 C25           -5.6737    -0.9690     0.2371 C.ar    
  26 C26           -6.9534    -0.4673     0.1058 C.ar    
  27 C27           -7.2740     0.7679     0.6414 C.ar    
  28 C28           -6.3147     1.5084     1.3114 C.ar    
  29 C29           -5.0333     1.0147     1.4547 C.ar    
  30 Br30          -8.2706    -1.4699    -0.8084 Br      
  31 Cl31          -6.7260     3.0573     1.9788 Cl      
  32 H32           -0.2967    -0.5846    -0.7632 H       
  33 H33            1.0215    -0.2019     0.3748 H       
  34 H34           -0.9385    -1.5044     1.3841 H       
  35 H35           -0.5332     0.0176     2.2198 H       
  36 H36           -3.5108     1.7060     0.5321 H       
  37 H37           -2.1926     2.0887     1.6701 H       
  38 H38            4.3731    -0.4016     1.0273 H       
  39 H39           -1.0487     3.8723     0.3682 H       
  40 H40           -1.0009     3.7326    -1.4057 H       
  41 H41           -2.5655     3.8260    -0.5621 H       
  42 H42           -3.1227     1.6719    -1.8590 H       
  43 H43           -1.4688     1.6042    -2.5135 H       
  44 H44           -2.1192     0.2259    -1.5940 H       
  45 H45            5.1461     4.2251     0.5907 H       
  46 H46            7.4580     4.9462     1.0292 H       
  47 H47            9.1711     3.2889     1.6424 H       
  48 H48            8.5774     0.9071     1.8206 H       
  49 H49            6.2666     0.1770     1.3910 H       
  50 H50           -5.4248    -1.9329    -0.1816 H       
  51 H51           -8.2763     1.1560     0.5360 H       
  52 H52           -4.2860     1.5929     1.9777 H       
@<TRIPOS>BOND
   1    1    2 1
   2    1    7 am
   3    1    6 1
   4    2    3 1
   5    2   32 1
   6    2   33 1
   7    3    4 1
   8    3   34 1
   9    3   35 1
  10    4    5 1
  11    4   14 am
  12    5    6 1
  13    5   36 1
  14    5   37 1
  15    6   17 1
  16    6   18 1
  17    7    8 1
  18    7   13 2
  19    8    9 2
  20    8   10 1
  21    9   12 1
  22   10   11 2
  23   11   12 1
  24   11   38 1
  25   12   19 1
  26   14   15 1
  27   14   16 2
  28   15   25 ar
  29   15   29 ar
  30   17   39 1
  31   17   40 1
  32   17   41 1
  33   18   42 1
  34   18   43 1
  35   18   44 1
  36   19   20 ar
  37   19   24 ar
  38   20   21 ar
  39   20   45 1
  40   21   22 ar
  41   21   46 1
  42   22   23 ar
  43   22   47 1
  44   23   24 ar
  45   23   48 1
  46   24   49 1
  47   25   26 ar
  48   25   50 1
  49   26   27 ar
  50   26   30 1
  51   27   28 ar
  52   27   51 1
  53   28   29 ar
  54   28   31 1
  55   29   52 1

#	End of record

