#	Name: ASD01883621
#	Creating user name:	WinNT
#	Creation time:	15. 06. 2019 19:46

#	Modifying user name:	WinNT
#	Modification time:	15. 06. 2019 19:46

#	Program:	/corina/corina34_cracker 3.40 0067  02.08.2006

@<TRIPOS>MOLECULE
ASD01883621
  51   54    0    0    0
SMALL
NO_CHARGES


@<TRIPOS>ATOM
   1 C1            -0.0308     1.3647     0.0223 C.ar    
   2 C2            -0.0232    -0.0300     0.0205 C.ar    
   3 C3             1.1765    -0.7109     0.0103 C.ar    
   4 C4             2.3726    -0.0116     0.0023 C.ar    
   5 C5             2.3704     1.3740     0.0040 C.ar    
   6 C6             1.1759     2.0641     0.0138 C.ar    
   7 C7            -1.3164     2.1009     0.0271 C.2     
   8 C8            -2.1773     2.0092    -1.0575 C.2     
   9 C9            -3.3882     2.7175    -1.0254 C.2     
  10 C10           -3.7052     3.5037     0.1008 C.2     
  11 N11           -2.8583     3.5822     1.1462 N.am    
  12 C12           -1.6758     2.8954     1.1379 C.2     
  13 C13           -3.1955     4.3518     2.2204 C.2     
  14 C14           -2.3696     4.4535     3.2865 C.2     
  15 C15           -1.1496     3.7651     3.3009 C.2     
  16 C16           -0.8080     2.9826     2.2353 C.2     
  17 C17           -2.7627     5.3103     4.4622 C.3     
  18 N18           -3.4072     4.4742     5.4837 N.3     
  19 O19           -4.7571     4.1199     0.1293 O.2     
  20 C20           -4.3185     2.6406    -2.1574 C.2     
  21 O21           -5.4097     3.1749    -2.0857 O.2     
  22 N22           -3.9647     1.9784    -3.2766 N.am    
  23 C23           -4.3051     3.4824     4.8649 C.3     
  24 F24            3.5450    -0.6829    -0.0068 F       
  25 C25           -3.9813     5.2564     6.4776 C.3     
  26 C26           -4.3766     4.4471     7.7255 C.3     
  27 C27           -4.2198     2.2088     5.6732 C.3     
  28 C28           -5.7365     3.8297     7.5057 C.3     
  29 S29           -5.5879     2.1227     6.8743 S.3     
  30 H30           -0.9550    -0.5760     0.0275 H       
  31 H31            1.1834    -1.7909     0.0089 H       
  32 H32            3.3053     1.9146    -0.0022 H       
  33 H33            1.1751     3.1441     0.0148 H       
  34 H34           -1.9192     1.4026    -1.9129 H       
  35 H35           -4.1335     4.8871     2.2195 H       
  36 H36           -0.4888     3.8456     4.1514 H       
  37 H37            0.1290     2.4457     2.2323 H       
  38 H38           -1.8733     5.7785     4.8841 H       
  39 H39           -3.4581     6.0823     4.1329 H       
  40 H40           -3.0688     1.6168    -3.3635 H       
  41 H41           -4.6060     1.8633    -3.9953 H       
  42 H42           -5.3289     3.8563     4.8732 H       
  43 H43           -3.9906     3.2898     3.8392 H       
  44 H44           -3.2703     6.0288     6.7709 H       
  45 H45           -4.8724     5.7376     6.0747 H       
  46 H46           -3.6425     3.6598     7.8967 H       
  47 H47           -4.4122     5.1077     8.5918 H       
  48 H48           -4.2752     1.3517     5.0020 H       
  49 H49           -3.2697     2.1837     6.2068 H       
  50 H50           -6.2800     3.8157     8.4504 H       
  51 H51           -6.2900     4.4310     6.7845 H       
@<TRIPOS>BOND
   1    1    2 ar
   2    1    6 ar
   3    1    7 1
   4    2    3 ar
   5    2   30 1
   6    3    4 ar
   7    3   31 1
   8    4    5 ar
   9    4   24 1
  10    5    6 ar
  11    5   32 1
  12    6   33 1
  13    7    8 1
  14    7   12 2
  15    8    9 2
  16    8   34 1
  17    9   10 1
  18    9   20 1
  19   10   11 am
  20   10   19 2
  21   11   12 1
  22   11   13 1
  23   12   16 1
  24   13   14 2
  25   13   35 1
  26   14   15 1
  27   14   17 1
  28   15   16 2
  29   15   36 1
  30   16   37 1
  31   17   18 1
  32   17   38 1
  33   17   39 1
  34   18   25 1
  35   18   23 1
  36   20   21 2
  37   20   22 am
  38   22   40 1
  39   22   41 1
  40   23   27 1
  41   23   42 1
  42   23   43 1
  43   25   26 1
  44   25   44 1
  45   25   45 1
  46   26   28 1
  47   26   46 1
  48   26   47 1
  49   27   29 1
  50   27   48 1
  51   27   49 1
  52   28   29 1
  53   28   50 1
  54   28   51 1

#	End of record

