#	Name: ASD03090589
#	Creating user name:	WinNT
#	Creation time:	15. 06. 2019 20:29

#	Modifying user name:	WinNT
#	Modification time:	15. 06. 2019 20:29

#	Program:	/corina/corina34_cracker 3.40 0067  02.08.2006

@<TRIPOS>MOLECULE
ASD03090589
  35   36    0    0    0
SMALL
NO_CHARGES


@<TRIPOS>ATOM
   1 N1            -0.1766     1.3451    -0.5681 N.am    
   2 C2            -0.1679    -0.0024    -0.5927 C.2     
   3 O3             0.7313    -0.5944    -1.1581 O.2     
   4 N4            -1.1558    -0.6938     0.0094 N.am    
   5 C5            -1.1931    -2.0934    -0.0881 C.ar    
   6 C6            -2.4055    -2.7688     0.0336 C.ar    
   7 C7            -2.4390    -4.1497    -0.0635 C.ar    
   8 C8            -1.2662    -4.8576    -0.2817 C.ar    
   9 C9            -0.0602    -4.1837    -0.4026 C.ar    
  10 C10           -0.0243    -2.8048    -0.3114 C.ar    
  11 C11            1.2124    -4.9554    -0.6391 C.3     
  12 O12           -1.2990    -6.2136    -0.3766 O.3     
  13 C13           -2.5749    -6.8427    -0.2420 C.3     
  14 O14           -3.5540    -2.0731     0.2479 O.3     
  15 C15           -4.7599    -2.8312     0.3626 C.3     
  16 S16            0.9565     3.7636    -1.2355 S.3     
  17 C17            0.8426     2.0584    -1.1893 C.2     
  18 N18            1.8442     1.5271    -1.8167 N.2     
  19 C19            2.7238     2.3563    -2.3493 C.2     
  20 C20            2.4506     3.6496    -2.1619 C.2     
  21 Cl21           3.4019     4.9856    -2.7310 Cl      
  22 H22           -0.8960     1.8174    -0.1206 H       
  23 H23           -1.8411    -0.2240     0.5101 H       
  24 H24           -3.3778    -4.6754     0.0309 H       
  25 H25            0.9154    -2.2817    -0.4099 H       
  26 H26            1.3758    -5.0669    -1.7110 H       
  27 H27            2.0512    -4.4170    -0.1978 H       
  28 H28            1.1307    -5.9404    -0.1796 H       
  29 H29           -3.2438    -6.4783    -1.0217 H       
  30 H30           -2.4596    -7.9223    -0.3377 H       
  31 H31           -2.9947    -6.6073     0.7360 H       
  32 H32           -5.5988    -2.1561     0.5315 H       
  33 H33           -4.9248    -3.3928    -0.5569 H       
  34 H34           -4.6758    -3.5231     1.2007 H       
  35 H35            3.5934     2.0157    -2.8919 H       
@<TRIPOS>BOND
   1    1    2 am
   2    1   17 1
   3    1   22 1
   4    2    3 2
   5    2    4 am
   6    4    5 1
   7    4   23 1
   8    5    6 ar
   9    5   10 ar
  10    6    7 ar
  11    6   14 1
  12    7    8 ar
  13    7   24 1
  14    8    9 ar
  15    8   12 1
  16    9   10 ar
  17    9   11 1
  18   10   25 1
  19   11   26 1
  20   11   27 1
  21   11   28 1
  22   12   13 1
  23   13   29 1
  24   13   30 1
  25   13   31 1
  26   14   15 1
  27   15   32 1
  28   15   33 1
  29   15   34 1
  30   16   17 1
  31   16   20 1
  32   17   18 2
  33   18   19 1
  34   19   20 2
  35   19   35 1
  36   20   21 1

#	End of record

