#	Name: ASD01882142
#	Creating user name:	WinNT
#	Creation time:	15. 06. 2019 19:44

#	Modifying user name:	WinNT
#	Modification time:	15. 06. 2019 19:44

#	Program:	/corina/corina34_cracker 3.40 0067  02.08.2006

@<TRIPOS>MOLECULE
ASD01882142
  53   57    0    0    0
SMALL
NO_CHARGES


@<TRIPOS>ATOM
   1 C1            -0.0144     1.3186    -0.0979 C.2     
   2 N2             0.0021    -0.0042    -0.0035 N.2     
   3 C3             1.1508    -0.6824     0.0874 C.2     
   4 C4             2.3821     0.0207     0.0834 C.2     
   5 C5             2.3523     1.3664    -0.0131 C.2     
   6 N6             1.1498     2.0098    -0.1035 N.pl3   
   7 O7            -1.0960     2.1215    -0.2007 O.3     
   8 C8             0.8572     3.4488    -0.2164 C.3     
   9 C9            -0.6787     3.5110    -0.2813 C.3     
  10 O10            1.1396    -1.9008     0.1738 O.2     
  11 C11            3.6366     2.1548    -0.0206 C.3     
  12 C12            3.8945     3.0963     1.1575 C.3     
  13 C13            4.6915     1.7967     1.0281 C.3     
  14 C14           -1.1301     4.1295    -1.6059 C.3     
  15 O15           -2.5569     4.2033    -1.6354 O.3     
  16 C16           -3.1243     4.7322    -2.7513 C.ar    
  17 C17           -4.5046     4.8342    -2.8472 C.ar    
  18 C18           -5.0790     5.3722    -3.9826 C.ar    
  19 C19           -4.2795     5.8089    -5.0227 C.ar    
  20 C20           -2.9037     5.7080    -4.9297 C.ar    
  21 C21           -2.3242     5.1764    -3.7939 C.ar    
  22 C22           -4.9088     6.3954    -6.2601 C.3     
  23 C23           -4.4188     7.8324    -6.4493 C.3     
  24 C24           -5.0577     8.4279    -7.7055 C.3     
  25 C25           -4.6641     7.5902    -8.9239 C.3     
  26 C26           -5.1541     6.1532    -8.7346 C.3     
  27 C27           -4.5152     5.5578    -7.4784 C.3     
  28 H28            3.3210    -0.5079     0.1562 H       
  29 H29            1.2267     3.9839     0.6584 H       
  30 H30            1.2933     3.8573    -1.1280 H       
  31 H31           -1.0761     4.0780     0.5605 H       
  32 H32            3.9895     2.4693    -1.0028 H       
  33 H33            4.4174     4.0301     0.9504 H       
  34 H34            3.1353     3.1455     1.9380 H       
  35 H35            4.4566     0.9909     1.7236 H       
  36 H36            5.7387     1.8754     0.7360 H       
  37 H37           -0.7124     5.1319    -1.6999 H       
  38 H38           -0.7810     3.5114    -2.4331 H       
  39 H39           -5.1295     4.4929    -2.0352 H       
  40 H40           -6.1534     5.4514    -4.0579 H       
  41 H41           -2.2814     6.0492    -5.7438 H       
  42 H42           -1.2493     5.1023    -3.7197 H       
  43 H43           -5.9935     6.3926    -6.1523 H       
  44 H44           -4.6992     8.4292    -5.5813 H       
  45 H45           -3.3342     7.8352    -6.5571 H       
  46 H46           -6.1423     8.4251    -7.5977 H       
  47 H47           -4.7086     9.4516    -7.8403 H       
  48 H48           -5.1193     8.0145    -9.8188 H       
  49 H49           -3.5794     7.5930    -9.0316 H       
  50 H50           -6.2388     6.1504    -8.6269 H       
  51 H51           -4.8737     5.5565    -9.6026 H       
  52 H52           -3.4306     5.5606    -7.5862 H       
  53 H53           -4.8643     4.5340    -7.3436 H       
@<TRIPOS>BOND
   1    1    2 2
   2    1    6 1
   3    1    7 1
   4    2    3 1
   5    3    4 1
   6    3   10 2
   7    4    5 2
   8    4   28 1
   9    5    6 1
  10    5   11 1
  11    6    8 1
  12    7    9 1
  13    8    9 1
  14    8   29 1
  15    8   30 1
  16    9   14 1
  17    9   31 1
  18   11   12 1
  19   11   13 1
  20   11   32 1
  21   12   13 1
  22   12   33 1
  23   12   34 1
  24   13   35 1
  25   13   36 1
  26   14   15 1
  27   14   37 1
  28   14   38 1
  29   15   16 1
  30   16   17 ar
  31   16   21 ar
  32   17   18 ar
  33   17   39 1
  34   18   19 ar
  35   18   40 1
  36   19   20 ar
  37   19   22 1
  38   20   21 ar
  39   20   41 1
  40   21   42 1
  41   22   23 1
  42   22   27 1
  43   22   43 1
  44   23   24 1
  45   23   44 1
  46   23   45 1
  47   24   25 1
  48   24   46 1
  49   24   47 1
  50   25   26 1
  51   25   48 1
  52   25   49 1
  53   26   27 1
  54   26   50 1
  55   26   51 1
  56   27   52 1
  57   27   53 1

#	End of record

