#	Name: ASD01940075
#	Creating user name:	WinNT
#	Creation time:	15. 06. 2019 20:11

#	Modifying user name:	WinNT
#	Modification time:	15. 06. 2019 20:11

#	Program:	/corina/corina34_cracker 3.40 0067  02.08.2006

@<TRIPOS>MOLECULE
ASD01940075
  35   36    0    0    0
SMALL
NO_CHARGES


@<TRIPOS>ATOM
   1 C1             0.9797     1.3514    -0.0484 C.3     
   2 F2            -2.0562    -4.7803     0.2827 F       
   3 C3            -1.1740    -5.2224     1.2054 C.ar    
   4 C4             0.1851    -4.9972     1.0313 C.ar    
   5 C5             1.0915    -5.4548     1.9863 C.ar    
   6 C6             0.6322    -6.1326     3.1056 C.ar    
   7 C7            -0.7223    -6.3544     3.2736 C.ar    
   8 C8            -1.6250    -5.8963     2.3291 C.ar    
   9 N9             0.6444    -4.3120    -0.1020 N.pl3   
  10 N10            2.4642    -5.2307     1.8155 N.am    
  11 C11            0.7273    -2.9164    -0.0893 C.ar    
  12 C12            0.4043    -2.2106     1.0617 C.ar    
  13 C13            0.4873    -0.8313     1.0712 C.ar    
  14 C14            0.8913    -0.1529    -0.0635 C.ar    
  15 C15            1.2142    -0.8515    -1.2131 C.ar    
  16 C16            1.1392    -2.2317    -1.2285 C.ar    
  17 F17            1.4550    -2.9140    -2.3509 F       
  18 F18           -2.9478    -6.1105     2.5012 F       
  19 S19            3.5573    -6.3716     2.3113 S.o2    
  20 O20            4.8152    -5.8535     1.9005 O.2     
  21 O21            3.2597    -6.5676     3.6869 O.2     
  22 C22            3.1342    -7.8514     1.3513 C.3     
  23 F23            3.2544    -7.5716    -0.0141 F       
  24 F24            4.0038    -8.8929     1.6923 F       
  25 F25            1.8180    -8.2310     1.6355 F       
  26 H26            1.9784     1.6535     0.2671 H       
  27 H27            0.7824     1.7371    -1.0486 H       
  28 H28            0.2423     1.7517     0.6474 H       
  29 H29            1.3330    -6.4878     3.8466 H       
  30 H30           -1.0773    -6.8828     4.1460 H       
  31 H31            0.9046    -4.8061    -0.8952 H       
  32 H32            2.7741    -4.4074     1.4067 H       
  33 H33            0.0882    -2.7391     1.9489 H       
  34 H34            0.2360    -0.2823     1.9667 H       
  35 H35            1.5294    -0.3183    -2.0978 H       
@<TRIPOS>BOND
   1    1   14 1
   2    1   26 1
   3    1   27 1
   4    1   28 1
   5    2    3 1
   6    3    4 ar
   7    3    8 ar
   8    4    5 ar
   9    4    9 1
  10    5    6 ar
  11    5   10 1
  12    6    7 ar
  13    6   29 1
  14    7    8 ar
  15    7   30 1
  16    8   18 1
  17    9   11 1
  18    9   31 1
  19   10   19 am
  20   10   32 1
  21   11   12 ar
  22   11   16 ar
  23   12   13 ar
  24   12   33 1
  25   13   14 ar
  26   13   34 1
  27   14   15 ar
  28   15   16 ar
  29   15   35 1
  30   16   17 1
  31   19   20 2
  32   19   21 2
  33   19   22 1
  34   22   23 1
  35   22   24 1
  36   22   25 1

#	End of record

