#	Name: ASD01200530
#	Creating user name:	WinNT
#	Creation time:	15. 06. 2019 19:09

#	Modifying user name:	WinNT
#	Modification time:	15. 06. 2019 19:09

#	Program:	/corina/corina34_cracker 3.40 0067  02.08.2006

@<TRIPOS>MOLECULE
ASD01200530
  48   50    0    0    0
SMALL
NO_CHARGES


@<TRIPOS>ATOM
   1 N1             2.2307     1.3387     0.5646 N.ar    
   2 C2             2.2417     0.0209     0.5646 C.ar    
   3 C3             1.2057    -0.6961    -0.0206 C.ar    
   4 C4             0.1516    -0.0017    -0.6089 C.ar    
   5 C5             0.1813     1.3832    -0.5852 C.ar    
   6 C6             1.2474     2.0256     0.0161 C.ar    
   7 N7             1.2214    -2.0945    -0.0195 N.am    
   8 C8             0.0669    -2.7813     0.0900 C.2     
   9 O9            -0.9777    -2.1883     0.2860 O.2     
  10 O10            1.1516    -5.0191    -0.2424 O.3     
  11 C11            0.0694    -4.2428    -0.0269 C.2     
  12 C12           -1.0233    -5.0570     0.0637 C.2     
  13 C13           -0.5621    -6.3717    -0.1064 C.2     
  14 C14            0.7748    -6.3035    -0.2909 C.2     
  15 C15            1.6909    -7.4789    -0.5150 C.3     
  16 O16            1.7915    -7.7442    -1.9155 O.3     
  17 C17            2.5856    -8.7810    -2.2916 C.ar    
  18 C18            2.7289    -9.0946    -3.6354 C.ar    
  19 C19            3.5366   -10.1490    -4.0150 C.ar    
  20 C20            4.2019   -10.8917    -3.0571 C.ar    
  21 C21            4.0603   -10.5814    -1.7171 C.ar    
  22 C22            3.2586    -9.5241    -1.3327 C.ar    
  23 C23            5.0823   -12.0414    -3.4741 C.3     
  24 C24            6.1989   -11.5249    -4.3837 C.3     
  25 C25            5.6958   -12.6906    -2.2318 C.3     
  26 C26            4.2462   -13.0760    -4.2300 C.3     
  27 H27            3.0644    -0.5069     1.0238 H       
  28 H28           -0.6686    -0.5297    -1.0724 H       
  29 H29           -0.6190     1.9544    -1.0320 H       
  30 H30            1.2753     3.1050     0.0376 H       
  31 H31            2.0631    -2.5702    -0.0975 H       
  32 H32           -2.0445    -4.7489     0.2332 H       
  33 H33           -1.1627    -7.2692    -0.0918 H       
  34 H34            2.6794    -7.2502    -0.1166 H       
  35 H35            1.2883    -8.3553    -0.0071 H       
  36 H36            2.2092    -8.5151    -4.3840 H       
  37 H37            3.6483   -10.3938    -5.0610 H       
  38 H38            4.5804   -11.1635    -0.9707 H       
  39 H39            3.1522    -9.2791    -0.2862 H       
  40 H40            6.7946   -10.7879    -3.8451 H       
  41 H41            6.8358   -12.3565    -4.6853 H       
  42 H42            5.7619   -11.0624    -5.2686 H       
  43 H43            4.9003   -13.0586    -1.5838 H       
  44 H44            6.3326   -13.5223    -2.5335 H       
  45 H45            6.2914   -11.9536    -1.6933 H       
  46 H46            3.8092   -12.6134    -5.1150 H       
  47 H47            4.8831   -13.9076    -4.5317 H       
  48 H48            3.4508   -13.4439    -3.5820 H       
@<TRIPOS>BOND
   1    1    2 ar
   2    1    6 ar
   3    2    3 ar
   4    2   27 1
   5    3    4 ar
   6    3    7 1
   7    4    5 ar
   8    4   28 1
   9    5    6 ar
  10    5   29 1
  11    6   30 1
  12    7    8 am
  13    7   31 1
  14    8    9 2
  15    8   11 1
  16   10   11 1
  17   10   14 1
  18   11   12 2
  19   12   13 1
  20   12   32 1
  21   13   14 2
  22   13   33 1
  23   14   15 1
  24   15   16 1
  25   15   34 1
  26   15   35 1
  27   16   17 1
  28   17   18 ar
  29   17   22 ar
  30   18   19 ar
  31   18   36 1
  32   19   20 ar
  33   19   37 1
  34   20   21 ar
  35   20   23 1
  36   21   22 ar
  37   21   38 1
  38   22   39 1
  39   23   24 1
  40   23   26 1
  41   23   25 1
  42   24   40 1
  43   24   41 1
  44   24   42 1
  45   25   43 1
  46   25   44 1
  47   25   45 1
  48   26   46 1
  49   26   47 1
  50   26   48 1

#	End of record

