#	Name: ASD03240525
#	Creating user name:	WinNT
#	Creation time:	15. 06. 2019 20:35

#	Modifying user name:	WinNT
#	Modification time:	15. 06. 2019 20:35

#	Program:	/corina/corina34_cracker 3.40 0067  02.08.2006

@<TRIPOS>MOLECULE
ASD03240525
  71   78    0    0    0
SMALL
NO_CHARGES


@<TRIPOS>ATOM
   1 C1             0.5593     0.3416    -2.9680 C.ar    
   2 C2             0.7396    -1.0123    -2.7734 C.ar    
   3 N3             1.8146    -1.4741    -2.1633 N.ar    
   4 C4             2.7647    -0.6670    -1.7109 C.ar    
   5 C5             2.6546     0.7112    -1.8856 C.ar    
   6 C6             1.5310     1.2263    -2.5188 C.ar    
   7 N7             3.8576    -1.2136    -1.0440 N.pl3   
   8 C8             4.1001    -0.9068     0.2922 C.ar    
   9 C9             4.3694     0.4095     0.6820 C.ar    
  10 C10            4.4286     1.4873    -0.3297 C.2     
  11 N11            3.6607     1.5865    -1.4525 N.pl3   
  12 C12            4.0726    -1.9127     1.2489 C.ar    
  13 C13            4.2996    -1.6099     2.5779 C.ar    
  14 C14            4.5543    -0.3059     2.9665 C.ar    
  15 C15            4.5908     0.7047     2.0270 C.ar    
  16 N16            5.2491     2.5176    -0.2812 N.2     
  17 C17            5.0526     3.3041    -1.3504 C.2     
  18 C18            4.0492     2.7353    -2.1132 C.2     
  19 C19            3.5025     3.2525    -3.3823 C.ar    
  20 C20            3.1955     4.6092    -3.5132 C.ar    
  21 C21            3.2947     2.3889    -4.4608 C.ar    
  22 C22            2.7833     2.8794    -5.6440 C.ar    
  23 C23            2.4761     4.2233    -5.7646 C.ar    
  24 C24            2.6847     5.0856    -4.7025 C.ar    
  25 C25            5.7805     4.5570    -1.6585 C.ar    
  26 C26            6.1852     5.4025    -0.6254 C.ar    
  27 C27            6.0678     4.8911    -2.9821 C.ar    
  28 C28            6.7454     6.0580    -3.2653 C.ar    
  29 C29            7.1422     6.9000    -2.2348 C.ar    
  30 C30            6.8625     6.5678    -0.9158 C.ar    
  31 C31            1.9182     4.7516    -7.0610 C.3     
  32 N32            1.3257     3.6996    -7.8978 N.3     
  33 C33            1.0129     5.9823    -6.8859 C.3     
  34 C34            1.6715     6.5494    -8.1546 C.3     
  35 C35            2.8900     5.6693    -7.8214 C.3     
  36 O36            7.8107     8.0488    -2.5174 O.3     
  37 C37            7.0805     9.1703    -2.7526 C.ar    
  38 C38            5.7020     9.1480    -2.5950 C.ar    
  39 C39            7.7126    10.3415    -3.1454 C.ar    
  40 C40            6.9680    11.4803    -3.3835 C.ar    
  41 C41            5.5940    11.4540    -3.2307 C.ar    
  42 C42            4.9622    10.2897    -2.8343 C.ar    
  43 H43           -0.3249     0.7088    -3.4677 H       
  44 H44           -0.0108    -1.7047    -3.1254 H       
  45 H45            1.4157     2.2909    -2.6590 H       
  46 H46            4.4563    -1.8140    -1.5151 H       
  47 H47            3.8733    -2.9324     0.9542 H       
  48 H48            4.2779    -2.3958     3.3184 H       
  49 H49            4.7254    -0.0785     4.0083 H       
  50 H50            4.7895     1.7213     2.3326 H       
  51 H51            3.3574     5.2832    -2.6850 H       
  52 H52            3.5344     1.3399    -4.3682 H       
  53 H53            2.6225     2.2130    -6.4786 H       
  54 H54            2.4426     6.1332    -4.8036 H       
  55 H55            5.9680     5.1447     0.4006 H       
  56 H56            5.7601     4.2364    -3.7840 H       
  57 H57            6.9682     6.3174    -4.2898 H       
  58 H58            7.1726     7.2249    -0.1167 H       
  59 H59            1.9612     2.9234    -8.0067 H       
  60 H60            0.4414     3.3928    -7.5209 H       
  61 H61           -0.0484     5.7642    -7.0050 H       
  62 H62            1.2292     6.5590    -5.9866 H       
  63 H63            1.1650     6.2609    -9.0757 H       
  64 H64            1.8759     7.6186    -8.0998 H       
  65 H65            3.6200     6.1601    -7.1777 H       
  66 H66            3.3421     5.2006    -8.6954 H       
  67 H67            5.2080     8.2388    -2.2857 H       
  68 H68            8.7858    10.3627    -3.2646 H       
  69 H69            7.4595    12.3922    -3.6889 H       
  70 H70            5.0137    12.3456    -3.4170 H       
  71 H71            3.8888    10.2717    -2.7161 H       
@<TRIPOS>BOND
   1    1    2 ar
   2    1    6 ar
   3    1   43 1
   4    2    3 ar
   5    2   44 1
   6    3    4 ar
   7    4    5 ar
   8    4    7 1
   9    5    6 ar
  10    5   11 1
  11    6   45 1
  12    7    8 1
  13    7   46 1
  14    8    9 ar
  15    8   12 ar
  16    9   10 1
  17    9   15 ar
  18   10   11 1
  19   10   16 2
  20   11   18 1
  21   12   13 ar
  22   12   47 1
  23   13   14 ar
  24   13   48 1
  25   14   15 ar
  26   14   49 1
  27   15   50 1
  28   16   17 1
  29   17   18 2
  30   17   25 1
  31   18   19 1
  32   19   20 ar
  33   19   21 ar
  34   20   24 ar
  35   20   51 1
  36   21   22 ar
  37   21   52 1
  38   22   23 ar
  39   22   53 1
  40   23   24 ar
  41   23   31 1
  42   24   54 1
  43   25   26 ar
  44   25   27 ar
  45   26   30 ar
  46   26   55 1
  47   27   28 ar
  48   27   56 1
  49   28   29 ar
  50   28   57 1
  51   29   30 ar
  52   29   36 1
  53   30   58 1
  54   31   32 1
  55   31   33 1
  56   31   35 1
  57   32   59 1
  58   32   60 1
  59   33   34 1
  60   33   61 1
  61   33   62 1
  62   34   35 1
  63   34   63 1
  64   34   64 1
  65   35   65 1
  66   35   66 1
  67   36   37 1
  68   37   38 ar
  69   37   39 ar
  70   38   42 ar
  71   38   67 1
  72   39   40 ar
  73   39   68 1
  74   40   41 ar
  75   40   69 1
  76   41   42 ar
  77   41   70 1
  78   42   71 1

#	End of record

