#	Name: ASD01885904
#	Creating user name:	WinNT
#	Creation time:	15. 06. 2019 19:50

#	Modifying user name:	WinNT
#	Modification time:	15. 06. 2019 19:50

#	Program:	/corina/corina34_cracker 3.40 0067  02.08.2006

@<TRIPOS>MOLECULE
ASD01885904
  52   55    0    0    0
SMALL
NO_CHARGES


@<TRIPOS>ATOM
   1 C1            -0.0170     1.4036     0.0098 C.ar    
   2 C2            -1.2664     2.0739     0.0193 C.ar    
   3 C3            -1.2872     3.4921     0.0272 C.ar    
   4 C4            -0.0693     4.1599     0.0250 C.ar    
   5 C5             1.1201     3.4236     0.0154 C.ar    
   6 N6             1.1179     2.1037     0.0027 N.ar    
   7 C7             0.0021    -0.0041     0.0020 C.ar    
   8 C8            -1.1701    -0.6952     0.0090 C.ar    
   9 C9            -2.3952    -0.0320     0.0237 C.ar    
  10 C10           -2.4529     1.3298     0.0204 C.ar    
  11 C11           -2.5658     4.2366     0.0368 C.ar    
  12 C12           -2.9185     5.0356    -1.0515 C.ar    
  13 C13           -4.1104     5.7274    -1.0394 C.ar    
  14 C14           -3.4268     4.1370     1.1340 C.ar    
  15 C15            2.4161     4.1442     0.0065 C.2     
  16 N16            3.5721     3.4516    -0.0142 N.am    
  17 O17            2.4358     5.3590     0.0180 O.2     
  18 C18           -1.1424    -2.2019     0.0127 C.3     
  19 C19           -4.9616     5.6313     0.0543 C.ar    
  20 C20           -4.6189     4.8335     1.1377 C.ar    
  21 O21           -6.1349     6.3155     0.0614 O.3     
  22 C22           -1.1525    -2.7157    -1.4284 C.3     
  23 C23           -6.9626     6.1718     1.2174 C.3     
  24 C24           -1.1249    -4.2225    -1.4247 C.ar    
  25 C25           -2.3021    -4.9538    -1.4069 C.ar    
  26 N26           -2.2387    -6.2756    -1.4041 N.ar    
  27 C27           -1.0759    -6.8959    -1.4181 C.ar    
  28 N28            0.0634    -6.2335    -1.4352 N.ar    
  29 C29            0.0782    -4.9103    -1.4448 C.ar    
  30 C30           -1.0482    -8.4026    -1.4138 C.3     
  31 F31           -3.0931     3.3606     2.1880 F       
  32 H32           -0.0408     5.2395     0.0304 H       
  33 H33            0.9434    -0.5334    -0.0098 H       
  34 H34           -3.3109    -0.6043     0.0376 H       
  35 H35           -3.4087     1.8324     0.0276 H       
  36 H36           -2.2578     5.1121    -1.9024 H       
  37 H37           -4.3832     6.3457    -1.8818 H       
  38 H38            3.5564     2.4818    -0.0234 H       
  39 H39            4.4198     3.9230    -0.0200 H       
  40 H40           -0.2391    -2.5475     0.5153 H       
  41 H41           -2.0186    -2.5801     0.5394 H       
  42 H42           -5.2834     4.7611     1.9861 H       
  43 H43           -2.0559    -2.3701    -1.9310 H       
  44 H44           -0.2764    -2.3376    -1.9551 H       
  45 H45           -7.2341     5.1235     1.3419 H       
  46 H46           -6.4190     6.5135     2.0982 H       
  47 H47           -7.8661     6.7689     1.0938 H       
  48 H48           -3.2582    -4.4518    -1.3950 H       
  49 H49            1.0153    -4.3735    -1.4589 H       
  50 H50           -1.0556    -8.7691    -2.4403 H       
  51 H51           -0.1448    -8.7480    -0.9112 H       
  52 H52           -1.9243    -8.7806    -0.8868 H       
@<TRIPOS>BOND
   1    1    7 ar
   2    1    6 ar
   3    1    2 ar
   4    2    3 ar
   5    2   10 ar
   6    3   11 1
   7    3    4 ar
   8    4    5 ar
   9    4   32 1
  10    5   15 1
  11    5    6 ar
  12    7    8 ar
  13    7   33 1
  14    8    9 ar
  15    8   18 1
  16    9   10 ar
  17    9   34 1
  18   10   35 1
  19   11   12 ar
  20   11   14 ar
  21   12   13 ar
  22   12   36 1
  23   13   19 ar
  24   13   37 1
  25   14   31 1
  26   14   20 ar
  27   15   16 am
  28   15   17 2
  29   16   38 1
  30   16   39 1
  31   18   22 1
  32   18   40 1
  33   18   41 1
  34   19   20 ar
  35   19   21 1
  36   20   42 1
  37   21   23 1
  38   22   24 1
  39   22   43 1
  40   22   44 1
  41   23   45 1
  42   23   46 1
  43   23   47 1
  44   24   25 ar
  45   24   29 ar
  46   25   26 ar
  47   25   48 1
  48   26   27 ar
  49   27   28 ar
  50   27   30 1
  51   28   29 ar
  52   29   49 1
  53   30   50 1
  54   30   51 1
  55   30   52 1

#	End of record

