#	Name: ASD00841725
#	Creating user name:	WinNT
#	Creation time:	15. 06. 2019 18:42

#	Modifying user name:	WinNT
#	Modification time:	15. 06. 2019 18:42

#	Program:	/corina/corina34_cracker 3.40 0067  02.08.2006

@<TRIPOS>MOLECULE
ASD00841725
  88   93    0    0    0
SMALL
NO_CHARGES


@<TRIPOS>ATOM
   1 C1            -0.0052     1.3862     0.0369 C.ar    
   2 C2             0.0093    -0.0007     0.0189 C.ar    
   3 C3             1.2193    -0.6794    -0.0012 C.ar    
   4 C4             2.4062     0.0272    -0.0032 C.ar    
   5 C5             2.3891     1.4098     0.0152 C.ar    
   6 C6             1.1848     2.0884     0.0347 C.ar    
   7 C7             1.2387    -2.1862    -0.0202 C.3     
   8 C8             0.4942    -2.7107    -1.2292 C.2     
   9 N9             2.6178    -2.6804    -0.0126 N.am    
  10 C10            3.4633    -2.3341    -1.0034 C.2     
  11 N11            4.7589    -2.7002    -0.9424 N.am    
  12 O12            3.0572    -1.6913    -1.9522 O.2     
  13 C13            5.2906    -3.3760     0.2490 C.3     
  14 C14            6.5170    -2.6050     0.7471 C.3     
  15 C15            7.5240    -2.4623    -0.3965 C.3     
  16 C16            6.8886    -1.6712    -1.5422 C.3     
  17 C17            5.6651    -2.4366    -2.0685 C.3     
  18 N18            8.7158    -1.7522     0.0866 N.3     
  19 C19            9.7547    -1.7003    -0.9515 C.3     
  20 C20           10.9448    -0.8862    -0.4381 C.3     
  21 N21           11.4629    -1.5027     0.7911 N.3     
  22 C22           10.4240    -1.5546     1.8292 C.3     
  23 C23            9.2340    -2.3687     1.3158 C.3     
  24 C24           12.6547    -0.7926     1.2742 C.3     
  25 O25            0.7743    -2.5065    -2.3916 O.2     
  26 N26           -0.5343    -3.4453    -0.7739 N.am    
  27 C27            0.4679    -2.7406     1.1565 C.ar    
  28 C28           -0.5794    -3.4839     0.6218 C.ar    
  29 C29            0.6367    -2.6273     2.5189 C.ar    
  30 C30           -1.3024    -4.0080     2.8623 C.ar    
  31 C31           -1.4670    -4.1195     1.4820 C.ar    
  32 C32           -0.9912    -5.8299    -2.0697 C.ar    
  33 C33           -1.3193    -6.8764    -1.2277 C.ar    
  34 C34           -0.1722    -6.0490    -3.1619 C.ar    
  35 C35            0.3205    -7.3147    -3.4145 C.ar    
  36 C36           -0.0072    -8.3663    -2.5711 C.ar    
  37 C37           -0.8288    -8.1438    -1.4757 C.ar    
  38 O38            0.4758    -9.6124    -2.8177 O.3     
  39 H39           -1.9592    -6.7028    -0.3752 H       
  40 C40            0.0971   -10.6469    -1.9075 C.3     
  41 C41           -0.2422    -3.2583     3.3819 C.ar    
  42 F42           -0.0781    -3.1491     4.7185 F       
  43 S43           -1.6238    -4.2159    -1.7545 S.o2    
  44 O44           -2.8042    -4.3912    -0.9829 O.2     
  45 O45           -1.6028    -3.5269    -2.9971 O.2     
  46 O46           -1.1598    -0.6937     0.0215 O.3     
  47 C47           -3.5696    -0.8751     0.0427 C.3     
  48 C48           -2.3670     0.0707     0.0431 C.3     
  49 C49           -2.2179    -4.6627     3.7477 C.1     
  50 N50           -2.9441    -5.1821     4.4501 N.1     
  51 H51           -0.9458     1.9168     0.0480 H       
  52 H52            3.3483    -0.5006    -0.0188 H       
  53 H53            3.3181     1.9605     0.0142 H       
  54 H54            1.1741     3.1682     0.0491 H       
  55 H55            2.9224    -3.2570     0.7056 H       
  56 H56            4.5292    -3.3947     1.0288 H       
  57 H57            5.5791    -4.3954    -0.0074 H       
  58 H58            6.2112    -1.6159     1.0880 H       
  59 H59            6.9780    -3.1482     1.5720 H       
  60 H60            7.8107    -3.4515    -0.7535 H       
  61 H61            6.5792    -0.6909    -1.1797 H       
  62 H62            7.6140    -1.5498    -2.3467 H       
  63 H63            5.9868    -3.3781    -2.5137 H       
  64 H64            5.1506    -1.8334    -2.8165 H       
  65 H65           10.0820    -2.7124    -1.1894 H       
  66 H66            9.3506    -1.2284    -1.8471 H       
  67 H67           11.7285    -0.8706    -1.1955 H       
  68 H68           10.6234     0.1335    -0.2260 H       
  69 H69           10.8281    -2.0265     2.7248 H       
  70 H70           10.0967    -0.5425     2.0671 H       
  71 H71            8.4502    -2.3843     2.0732 H       
  72 H72            9.5554    -3.3884     1.1037 H       
  73 H73           12.3985     0.2456     1.4851 H       
  74 H74           13.0176    -1.2695     2.1847 H       
  75 H75           13.4324    -0.8272     0.5112 H       
  76 H76            1.4562    -2.0455     2.9142 H       
  77 H77           -2.2858    -4.6986     1.0812 H       
  78 H78            0.0824    -5.2300    -3.8183 H       
  79 H79            0.9599    -7.4853    -4.2679 H       
  80 H80           -1.0857    -8.9610    -0.8179 H       
  81 H81            0.4410   -10.3926    -0.9050 H       
  82 H82           -0.9882   -10.7488    -1.9045 H       
  83 H83            0.5495   -11.5884    -2.2189 H       
  84 H84           -4.4904    -0.2921     0.0592 H       
  85 H85           -3.5463    -1.4922    -0.8556 H       
  86 H86           -3.5289    -1.5150     0.9242 H       
  87 H87           -2.3903     0.6877     0.9413 H       
  88 H88           -2.4077     0.7106    -0.8384 H       
@<TRIPOS>BOND
   1    1    2 ar
   2    1    6 ar
   3    1   51 1
   4    2    3 ar
   5    2   46 1
   6    3    4 ar
   7    3    7 1
   8    4    5 ar
   9    4   52 1
  10    5    6 ar
  11    5   53 1
  12    6   54 1
  13    7    8 1
  14    7    9 1
  15    7   27 1
  16    8   25 2
  17    8   26 am
  18    9   10 am
  19    9   55 1
  20   10   11 am
  21   10   12 2
  22   11   13 1
  23   11   17 1
  24   13   14 1
  25   13   56 1
  26   13   57 1
  27   14   15 1
  28   14   58 1
  29   14   59 1
  30   15   16 1
  31   15   18 1
  32   15   60 1
  33   16   17 1
  34   16   61 1
  35   16   62 1
  36   17   63 1
  37   17   64 1
  38   18   19 1
  39   18   23 1
  40   19   20 1
  41   19   65 1
  42   19   66 1
  43   20   21 1
  44   20   67 1
  45   20   68 1
  46   21   22 1
  47   21   24 1
  48   22   23 1
  49   22   69 1
  50   22   70 1
  51   23   71 1
  52   23   72 1
  53   24   73 1
  54   24   74 1
  55   24   75 1
  56   26   43 am
  57   26   28 1
  58   27   28 ar
  59   27   29 ar
  60   28   31 ar
  61   29   41 ar
  62   29   76 1
  63   30   31 ar
  64   30   49 1
  65   30   41 ar
  66   31   77 1
  67   32   33 ar
  68   32   34 ar
  69   32   43 1
  70   33   39 1
  71   33   37 ar
  72   34   35 ar
  73   34   78 1
  74   35   36 ar
  75   35   79 1
  76   36   37 ar
  77   36   38 1
  78   37   80 1
  79   38   40 1
  80   40   81 1
  81   40   82 1
  82   40   83 1
  83   41   42 1
  84   43   44 2
  85   43   45 2
  86   46   48 1
  87   47   48 1
  88   47   84 1
  89   47   85 1
  90   47   86 1
  91   48   87 1
  92   48   88 1
  93   49   50 3

#	End of record

