#	Name: ASD01040013
#	Creating user name:	WinNT
#	Creation time:	15. 06. 2019 18:58

#	Modifying user name:	WinNT
#	Modification time:	15. 06. 2019 18:58

#	Program:	/corina/corina34_cracker 3.40 0067  02.08.2006

@<TRIPOS>MOLECULE
ASD01040013
  40   42    0    0    0
SMALL
NO_CHARGES


@<TRIPOS>ATOM
   1 C1            -0.0127     1.0858     0.0080 C.3     
   2 O2             0.3203     3.6949    -0.5941 O.3     
   3 C3            -1.3068    -4.3720    -2.9173 C.ar    
   4 C4            -2.0289    -4.7406    -4.0449 C.ar    
   5 C5            -1.1963    -3.0368    -2.5734 C.ar    
   6 C6            -1.6769    -0.6139    -2.9763 C.3     
   7 C7            -0.2010    -0.2184    -2.9395 C.3     
   8 C8            -0.6202     2.2041    -3.5667 C.3     
   9 C9            -0.7527     1.5927    -1.2315 C.3     
  10 F10           -3.3370    -4.1224    -5.9249 F       
  11 C11           -0.7468     3.5265    -2.7755 C.3     
  12 C12           -2.6334    -3.7673    -4.8276 C.ar    
  13 C13           -2.5152    -2.4306    -4.4817 C.ar    
  14 O14           -2.1430    -6.0535    -4.3816 O.3     
  15 C15           -2.2044     1.1063    -1.2648 C.3     
  16 C16           -1.8043    -2.0681    -3.3508 C.ar    
  17 F17           -3.1032    -1.4817    -5.2427 F       
  18 C18           -0.0250     1.2259    -2.5370 C.3     
  19 C19           -2.2708    -0.3853    -1.5817 C.3     
  20 C20           -0.8024     3.1432    -1.2850 C.3     
  21 F21           -0.7172    -5.3176    -2.1534 F       
  22 H22            0.0021    -0.0041     0.0020 H       
  23 H23            1.0099     1.4631     0.0003 H       
  24 H24           -0.5229     1.4373     0.9048 H       
  25 H25            0.3586     4.6609    -0.6143 H       
  26 H26           -0.6347    -2.7504    -1.6965 H       
  27 H27           -2.2042     0.0010    -3.7057 H       
  28 H28            0.3202    -0.8538    -2.2235 H       
  29 H29            0.2323    -0.3669    -3.9286 H       
  30 H30           -1.5995     1.8612    -3.9006 H       
  31 H31            0.0530     2.3247    -4.4155 H       
  32 H32            0.1197     4.1596    -2.9661 H       
  33 H33           -1.6606     4.0473    -3.0615 H       
  34 H34           -2.9087    -6.4950    -3.9895 H       
  35 H35           -2.6654     1.2874    -0.2938 H       
  36 H36           -2.7504     1.6598    -2.0287 H       
  37 H37            1.0372     1.4376    -2.4144 H       
  38 H38           -3.3090    -0.7169    -1.5667 H       
  39 H39           -1.6948    -0.9425    -0.8430 H       
  40 H40           -1.7297     3.5039    -0.8400 H       
@<TRIPOS>BOND
   1    1   22 1
   2    1   23 1
   3    1   24 1
   4    1    9 1
   5    2   20 1
   6    2   25 1
   7    3    4 ar
   8    3   21 1
   9    3    5 ar
  10    4   14 1
  11    4   12 ar
  12    5   26 1
  13    5   16 ar
  14    6   16 1
  15    6   27 1
  16    6    7 1
  17    6   19 1
  18    7   28 1
  19    7   29 1
  20    7   18 1
  21    8   18 1
  22    8   30 1
  23    8   31 1
  24    8   11 1
  25    9   15 1
  26    9   18 1
  27    9   20 1
  28   10   12 1
  29   11   20 1
  30   11   32 1
  31   11   33 1
  32   12   13 ar
  33   13   16 ar
  34   13   17 1
  35   14   34 1
  36   15   19 1
  37   15   35 1
  38   15   36 1
  39   18   37 1
  40   19   38 1
  41   19   39 1
  42   20   40 1

#	End of record

