#	Name: ASD02440035
#	Creating user name:	WinNT
#	Creation time:	15. 06. 2019 20:21

#	Modifying user name:	WinNT
#	Modification time:	15. 06. 2019 20:21

#	Program:	/corina/corina34_cracker 3.40 0067  02.08.2006

@<TRIPOS>MOLECULE
ASD02440035
  79   83    0    0    0
SMALL
NO_CHARGES


@<TRIPOS>ATOM
   1 C1             0.4143     3.2874     0.2947 C.3     
   2 C2            -0.3781     2.2205     1.0461 C.3     
   3 C3            -0.6049     1.0099     0.1461 C.3     
   4 C4             0.7256     0.4169    -0.3330 C.3     
   5 C5             1.6071     1.4903    -0.9340 C.3     
   6 C6             1.8044     2.7361    -0.0774 C.3     
   7 C7             2.5060     3.7949    -0.9339 C.3     
   8 C8             2.9559     0.9627    -1.4133 C.3     
   9 C9             3.5607     2.0109    -2.3618 C.3     
  10 C10            3.7835     3.3244    -1.6122 C.3     
  11 C11            3.2395     6.1712    -1.1096 C.3     
  12 C12            2.7547     5.0784    -0.1468 C.3     
  13 C13            4.2529     4.4114    -2.5983 C.3     
  14 C14            4.5075     5.7089    -1.8213 C.3     
  15 C15            5.0276     6.7641    -2.7752 C.3     
  16 C16            5.5013     3.9449    -3.3436 C.3     
  17 C17            6.0844     5.0622    -4.2285 C.3     
  18 C18            6.6641     8.5854    -2.9344 C.3     
  19 C19            5.4110     8.1083    -2.1545 C.3     
  20 C20            6.3854     6.2415    -3.3277 C.3     
  21 C21            6.9246     7.5014    -4.0197 C.3     
  22 C22            1.3944    -0.3655     0.7911 C.3     
  23 C23            0.3674    -0.5971    -1.4467 C.3     
  24 O24           -1.3287     0.0087     0.8676 O.3     
  25 C25            2.5636     2.4747     1.2149 C.3     
  26 C26            4.9165     3.1028    -0.5998 C.3     
  27 H27            5.2857     5.5455    -1.0622 H       
  28 O28            7.2528     5.8567    -2.2606 O.3     
  29 H29            1.0787     1.8429    -1.8569 H       
  30 H30            1.7615     4.0492    -1.7190 H       
  31 C31            3.1597     4.6473    -3.6468 C.3     
  32 H32            4.3348     6.9370    -3.5920 H       
  33 C33            4.2924     9.1031    -2.3408 C.2     
  34 C34            3.7564     9.6888    -1.2988 C.2     
  35 C35            3.7916     9.4231    -3.7256 C.3     
  36 H36           -0.1110     3.5626    -0.6188 H       
  37 H37            0.5380     4.1640     0.9280 H       
  38 H38            0.1224     1.9294     1.9628 H       
  39 H39           -1.3565     2.6416     1.3173 H       
  40 H40           -1.1911     1.3103    -0.7258 H       
  41 H41            3.6276     0.7739    -0.5852 H       
  42 H42            2.8270     0.0362    -1.9779 H       
  43 H43            4.5180     1.6360    -2.7295 H       
  44 H44            2.8797     2.1463    -3.1978 H       
  45 H45            2.4549     6.4114    -1.8189 H       
  46 H46            3.4663     7.0663    -0.5193 H       
  47 H47            1.8178     5.4135     0.3081 H       
  48 H48            3.4944     4.9368     0.6337 H       
  49 H49            6.2708     3.6210    -2.6509 H       
  50 H50            5.2279     3.1041    -3.9873 H       
  51 H51            7.0090     4.7090    -4.6934 H       
  52 H52            5.3794     5.3463    -5.0052 H       
  53 H53            6.4723     9.5477    -3.4032 H       
  54 H54            7.5181     8.6521    -2.2620 H       
  55 H55            5.6408     7.9860    -1.0995 H       
  56 H56            6.3664     7.7166    -4.9262 H       
  57 H57            7.9892     7.4050    -4.2208 H       
  58 H58            0.7976    -1.2470     1.0252 H       
  59 H59            2.3909    -0.6746     0.4757 H       
  60 H60            1.4729     0.2657     1.6762 H       
  61 H61           -0.1468    -0.0803    -2.2570 H       
  62 H62            1.2801    -1.0544    -1.8289 H       
  63 H63           -0.2831    -1.3705    -1.0384 H       
  64 H64           -2.1967     0.2990     1.1796 H       
  65 H65            1.9351     1.9005     1.8957 H       
  66 H66            3.4708     1.9116     0.9958 H       
  67 H67            2.8287     3.4246     1.6790 H       
  68 H68            4.6776     2.2468     0.0313 H       
  69 H69            5.8480     2.9125    -1.1329 H       
  70 H70            5.0282     3.9918     0.0209 H       
  71 H71            8.1124     5.5238    -2.5530 H       
  72 H72            2.2452     4.9733    -3.1513 H       
  73 H73            3.4874     5.4158    -4.3469 H       
  74 H74            2.9691     3.7204    -4.1878 H       
  75 H75            2.9556    10.4010    -1.4322 H       
  76 H76            4.1154     9.4594    -0.3063 H       
  77 H77            4.3536     8.8438    -4.4582 H       
  78 H78            2.7337     9.1705    -3.7968 H       
  79 H79            3.9253    10.4866    -3.9236 H       
@<TRIPOS>BOND
   1    1    2 1
   2    1    6 1
   3    1   36 1
   4    1   37 1
   5    2    3 1
   6    2   38 1
   7    2   39 1
   8    3    4 1
   9    3   24 1
  10    3   40 1
  11    4    5 1
  12    4   22 1
  13    4   23 1
  14    5    6 1
  15    5    8 1
  16    5   29 1
  17    6    7 1
  18    6   25 1
  19    7   10 1
  20    7   30 1
  21    7   12 1
  22    8    9 1
  23    8   41 1
  24    8   42 1
  25    9   10 1
  26    9   43 1
  27    9   44 1
  28   10   13 1
  29   10   26 1
  30   11   12 1
  31   11   14 1
  32   11   45 1
  33   11   46 1
  34   12   47 1
  35   12   48 1
  36   13   14 1
  37   13   16 1
  38   13   31 1
  39   14   15 1
  40   14   27 1
  41   15   20 1
  42   15   32 1
  43   15   19 1
  44   16   17 1
  45   16   49 1
  46   16   50 1
  47   17   20 1
  48   17   51 1
  49   17   52 1
  50   18   19 1
  51   18   21 1
  52   18   53 1
  53   18   54 1
  54   19   33 1
  55   19   55 1
  56   20   21 1
  57   20   28 1
  58   21   56 1
  59   21   57 1
  60   22   58 1
  61   22   59 1
  62   22   60 1
  63   23   61 1
  64   23   62 1
  65   23   63 1
  66   24   64 1
  67   25   65 1
  68   25   66 1
  69   25   67 1
  70   26   68 1
  71   26   69 1
  72   26   70 1
  73   28   71 1
  74   31   72 1
  75   31   73 1
  76   31   74 1
  77   33   34 2
  78   33   35 1
  79   34   75 1
  80   34   76 1
  81   35   77 1
  82   35   78 1
  83   35   79 1

#	End of record

