#	Name: ASD05430251
#	Creating user name:	WinNT
#	Creation time:	15. 06. 2019 21:00

#	Modifying user name:	WinNT
#	Modification time:	15. 06. 2019 21:00

#	Program:	/corina/corina34_cracker 3.40 0067  02.08.2006

@<TRIPOS>MOLECULE
ASD05430251
  62   68    0    0    0
SMALL
NO_CHARGES


@<TRIPOS>ATOM
   1 C1            -0.0091     2.7330    -0.7514 C.ar    
   2 C2            -0.1692     1.6180    -1.5710 C.ar    
   3 C3             0.9431     0.9738    -2.0904 C.ar    
   4 C4             2.2124     1.4370    -1.7964 C.ar    
   5 C5             2.3970     2.5470    -0.9821 C.ar    
   6 C6             1.2677     3.2280    -0.4342 C.ar    
   7 C7             4.4408     0.6548    -0.3091 C.3     
   8 C8             4.7397     2.1318    -0.4416 C.2     
   9 C9             3.7542     3.0199    -0.6836 C.2     
  10 C10            5.0404     0.1299     0.9983 C.3     
  11 S11            6.8160     0.4398     1.2242 S.o2    
  12 N12            7.0508     1.9208     0.5331 N.am    
  13 C13            6.1392     2.5725    -0.2982 C.2     
  14 N14            6.7128     3.5749    -0.8889 N.2     
  15 N15           -1.4533     1.1477    -1.8697 N.pl3   
  16 C16           -1.9461     0.8587    -3.1162 C.2     
  17 C17           -3.2142     0.4387    -2.9465 C.2     
  18 N18           -3.4935     0.4684    -1.6349 N.2     
  19 C19           -2.4451     0.8857    -0.9788 C.2     
  20 C20           -4.1570     0.0100    -4.0412 C.3     
  21 C21            8.2117     2.8077     0.6493 C.3     
  22 O22            8.0761     3.6678    -0.5016 O.3     
  23 C23            8.1458     3.6083     1.9244 C.ar    
  24 N24            0.0520     4.7933     0.7695 N.2     
  25 S25           -1.1411     3.8060     0.0780 S.3     
  26 C26            9.5138     2.0076     0.5771 C.3     
  27 C27            9.0467     4.6338     2.1433 C.ar    
  28 C28            8.9876     5.3684     3.3124 C.ar    
  29 C29            7.1200     4.0534     4.0416 C.ar    
  30 C30            7.1811     3.3202     2.8717 C.ar    
  31 O31            7.1180     0.6402     2.5982 O.2     
  32 O32            7.5846    -0.4482     0.4242 O.2     
  33 C33            8.0253     5.0771     4.2644 C.ar    
  34 F34            7.9666     5.7945     5.4077 F       
  35 C35            1.2066     4.3526     0.4006 C.2     
  36 C36            4.1551     0.1551     2.2446 C.3     
  37 C37            4.4760    -1.1756     1.5607 C.3     
  38 C38           -4.6806    -1.3961    -3.7416 C.3     
  39 H39            0.8182     0.1090    -2.7252 H       
  40 H40            3.0727     0.9282    -2.2056 H       
  41 H41            3.3617     0.5015    -0.3014 H       
  42 H42            4.8785     0.1183    -1.1509 H       
  43 H43            3.9634     4.0791    -0.6579 H       
  44 H44           -1.4185     0.9505    -4.0541 H       
  45 H45           -2.3795     1.0093     0.0921 H       
  46 H46           -4.9942     0.7060    -4.0930 H       
  47 H47           -3.6287     0.0055    -4.9946 H       
  48 H48            9.5656     1.4832    -0.3771 H       
  49 H49           10.3624     2.6859     0.6654 H       
  50 H50            9.5411     1.2836     1.3914 H       
  51 H51            9.7971     4.8608     1.4005 H       
  52 H52            9.6919     6.1690     3.4835 H       
  53 H53            6.3663     3.8283     4.7815 H       
  54 H54            6.4751     2.5217     2.6977 H       
  55 H55            2.1115     4.8425     0.7285 H       
  56 H56            4.6375     0.3589     3.2006 H       
  57 H57            3.1434     0.5460     2.1355 H       
  58 H58            3.6755    -1.6601     1.0016 H       
  59 H59            5.1696    -1.8472     2.0667 H       
  60 H60           -5.3625    -1.7063    -4.5334 H       
  61 H61           -3.8433    -2.0922    -3.6899 H       
  62 H62           -5.2088    -1.3917    -2.7882 H       
@<TRIPOS>BOND
   1    1    2 ar
   2    1    6 ar
   3    1   25 1
   4    2    3 ar
   5    2   15 1
   6    3    4 ar
   7    3   39 1
   8    4    5 ar
   9    4   40 1
  10    5    6 ar
  11    5    9 1
  12    6   35 1
  13    7    8 1
  14    7   10 1
  15    7   41 1
  16    7   42 1
  17    8    9 2
  18    8   13 1
  19    9   43 1
  20   10   11 1
  21   10   36 1
  22   10   37 1
  23   11   12 am
  24   11   31 2
  25   11   32 2
  26   12   13 1
  27   12   21 1
  28   13   14 2
  29   14   22 1
  30   15   16 1
  31   15   19 1
  32   16   17 2
  33   16   44 1
  34   17   18 1
  35   17   20 1
  36   18   19 2
  37   19   45 1
  38   20   38 1
  39   20   46 1
  40   20   47 1
  41   21   22 1
  42   21   23 1
  43   21   26 1
  44   23   27 ar
  45   23   30 ar
  46   24   25 1
  47   24   35 2
  48   26   48 1
  49   26   49 1
  50   26   50 1
  51   27   28 ar
  52   27   51 1
  53   28   33 ar
  54   28   52 1
  55   29   30 ar
  56   29   33 ar
  57   29   53 1
  58   30   54 1
  59   33   34 1
  60   35   55 1
  61   36   37 1
  62   36   56 1
  63   36   57 1
  64   37   58 1
  65   37   59 1
  66   38   60 1
  67   38   61 1
  68   38   62 1

#	End of record

