#	Name: ASD01880369
#	Creating user name:	WinNT
#	Creation time:	15. 06. 2019 19:40

#	Modifying user name:	WinNT
#	Modification time:	15. 06. 2019 19:40

#	Program:	/corina/corina34_cracker 3.40 0067  02.08.2006

@<TRIPOS>MOLECULE
ASD01880369
  41   43    0    0    0
SMALL
NO_CHARGES


@<TRIPOS>ATOM
   1 C1            -0.0158     1.3166     0.0093 C.ar    
   2 N2             0.0021    -0.0041     0.0020 N.ar    
   3 C3            -1.1218    -0.7055     0.0094 C.ar    
   4 C4            -2.3611    -0.0158     0.0254 C.ar    
   5 C5            -2.3234     1.3812     0.0325 C.ar    
   6 N6            -1.1363     2.0007     0.0291 N.ar    
   7 C7            -3.7205    -0.5227     0.0357 C.2     
   8 C8            -4.6572     0.4056     0.0497 C.2     
   9 S9            -3.9623     2.0156     0.0517 S.3     
  10 C10           -6.1367     0.1192     0.0623 C.3     
  11 N11           -1.0871    -2.0883     0.0012 N.pl3   
  12 C12            0.1995    -2.7886    -0.0158 C.3     
  13 C13           -0.0423    -4.2994    -0.0220 C.3     
  14 C14            1.2933     2.0630     0.0008 C.3     
  15 C15            1.2812    -5.0199    -0.0395 C.ar    
  16 C16            1.8999    -5.3569     1.1500 C.ar    
  17 C17            3.1146    -6.0176     1.1373 C.ar    
  18 C18            3.7129    -6.3426    -0.0645 C.ar    
  19 C19            3.0937    -6.0058    -1.2597 C.ar    
  20 C20            1.8726    -5.3481    -1.2443 C.ar    
  21 O21            3.6805    -6.3241    -2.4435 O.3     
  22 C22            4.9352    -7.0055    -2.3832 C.3     
  23 H23           -3.9477    -1.5785     0.0318 H       
  24 H24           -6.4835     0.0446     1.0929 H       
  25 H25           -6.6674     0.9266    -0.4421 H       
  26 H26           -6.3292    -0.8209    -0.4548 H       
  27 H27           -1.9147    -2.5942     0.0067 H       
  28 H28            0.7553    -2.5060    -0.9099 H       
  29 H29            0.7733    -2.5161     0.8700 H       
  30 H30           -0.5980    -4.5821     0.8721 H       
  31 H31           -0.6160    -4.5719    -0.9078 H       
  32 H32            1.5991     2.2485    -1.0289 H       
  33 H33            1.1731     3.0133     0.5209 H       
  34 H34            2.0546     1.4670     0.5042 H       
  35 H35            1.4339    -5.1034     2.0907 H       
  36 H36            3.5961    -6.2795     2.0679 H       
  37 H37            4.6619    -6.8580    -0.0739 H       
  38 H38            1.3887    -5.0849    -2.1732 H       
  39 H39            5.6598    -6.3864    -1.8541 H       
  40 H40            4.8103    -7.9506    -1.8548 H       
  41 H41            5.2925    -7.1991    -3.3946 H       
@<TRIPOS>BOND
   1    1    2 ar
   2    1   14 1
   3    1    6 ar
   4    2    3 ar
   5    3    4 ar
   6    3   11 1
   7    4    5 ar
   8    4    7 1
   9    5    6 ar
  10    5    9 1
  11    7    8 2
  12    7   23 1
  13    8    9 1
  14    8   10 1
  15   10   24 1
  16   10   25 1
  17   10   26 1
  18   11   12 1
  19   11   27 1
  20   12   13 1
  21   12   28 1
  22   12   29 1
  23   13   15 1
  24   13   30 1
  25   13   31 1
  26   14   32 1
  27   14   33 1
  28   14   34 1
  29   15   16 ar
  30   15   20 ar
  31   16   17 ar
  32   16   35 1
  33   17   18 ar
  34   17   36 1
  35   18   19 ar
  36   18   37 1
  37   19   20 ar
  38   19   21 1
  39   20   38 1
  40   21   22 1
  41   22   39 1
  42   22   40 1
  43   22   41 1

#	End of record

