#	Name: ASD06710033
#	Creating user name:	WinNT
#	Creation time:	15. 06. 2019 21:08

#	Modifying user name:	WinNT
#	Modification time:	15. 06. 2019 21:08

#	Program:	/corina/corina34_cracker 3.40 0067  02.08.2006

@<TRIPOS>MOLECULE
ASD06710033
  39   41    0    0    0
SMALL
NO_CHARGES


@<TRIPOS>ATOM
   1 C1             2.0135     0.3509    -1.1304 C.ar    
   2 C2             1.1568    -0.5872    -0.5888 C.ar    
   3 C3             0.4375    -0.2973     0.5597 C.ar    
   4 C4             0.5741     0.9372     1.1725 C.ar    
   5 C5             2.1566     1.6001    -0.5168 C.ar    
   6 C6             2.9762     2.7712    -0.8600 C.2     
   7 C7             1.4247     1.8785     0.6419 C.ar    
   8 C8             1.7917     3.2830     1.0555 C.3     
   9 C9             2.7896     3.7600     0.0261 C.2     
  10 C10            3.4421     5.0769     0.0010 C.2     
  11 N11            2.6699     6.2374    -0.0931 N.pl3   
  12 C12            4.7767     5.1643     0.0684 C.2     
  13 C13            3.3072     7.5520     0.0155 C.3     
  14 C14            1.2230     6.1396    -0.3003 C.3     
  15 C15            3.7258     8.0219    -1.3539 C.2     
  16 C16            3.7548     8.9655    -3.3586 C.2     
  17 C17            2.9759     8.7530    -2.1980 C.2     
  18 O18            4.9131     7.7867    -1.9360 O.3     
  19 C19            4.9356     8.3549    -3.1527 C.2     
  20 C20            6.0879     8.3143    -4.1231 C.3     
  21 F21            1.0190    -1.7933    -1.1817 F       
  22 H22            2.5752     0.1190    -2.0232 H       
  23 H23           -0.2313    -1.0352     0.9775 H       
  24 H24            0.0121     1.1608     2.0672 H       
  25 H25            3.6393     2.8274    -1.7106 H       
  26 H26            0.9083     3.9214     1.0472 H       
  27 H27            2.2448     3.2779     2.0468 H       
  28 H28            5.2561     6.1319     0.0500 H       
  29 H29            5.3736     4.2672     0.1412 H       
  30 H30            2.6013     8.2637     0.4437 H       
  31 H31            4.1844     7.4787     0.6583 H       
  32 H32            0.7262     6.0099     0.6612 H       
  33 H33            0.8616     7.0514    -0.7759 H       
  34 H34            1.0045     5.2848    -0.9404 H       
  35 H35            3.4596     9.5153    -4.2401 H       
  36 H36            1.9713     9.1087    -2.0231 H       
  37 H37            6.7412     9.1689    -3.9472 H       
  38 H38            6.6504     7.3916    -3.9809 H       
  39 H39            5.7054     8.3532    -5.1431 H       
@<TRIPOS>BOND
   1    1    2 ar
   2    1    5 ar
   3    1   22 1
   4    2    3 ar
   5    2   21 1
   6    3    4 ar
   7    3   23 1
   8    4    7 ar
   9    4   24 1
  10    5    7 ar
  11    5    6 1
  12    6    9 2
  13    6   25 1
  14    7    8 1
  15    8    9 1
  16    8   26 1
  17    8   27 1
  18    9   10 1
  19   10   11 1
  20   10   12 2
  21   11   13 1
  22   11   14 1
  23   12   28 1
  24   12   29 1
  25   13   15 1
  26   13   30 1
  27   13   31 1
  28   14   32 1
  29   14   33 1
  30   14   34 1
  31   15   18 1
  32   15   17 2
  33   16   17 1
  34   16   19 2
  35   16   35 1
  36   17   36 1
  37   18   19 1
  38   19   20 1
  39   20   37 1
  40   20   38 1
  41   20   39 1

#	End of record

