#	Name: ASD03930038
#	Creating user name:	WinNT
#	Creation time:	15. 06. 2019 20:47

#	Modifying user name:	WinNT
#	Modification time:	15. 06. 2019 20:47

#	Program:	/corina/corina34_cracker 3.40 0067  02.08.2006

@<TRIPOS>MOLECULE
ASD03930038
  24   26    0    0    0
SMALL
NO_CHARGES


@<TRIPOS>ATOM
   1 C1            -0.0167     1.3775     0.0096 C.ar    
   2 C2             0.0021    -0.0041     0.0020 C.ar    
   3 C3             1.1807    -0.7439    -0.0043 C.ar    
   4 C4             2.3825    -0.0946    -0.0025 C.ar    
   5 C5             2.3412     1.2985    -0.0124 C.ar    
   6 C6             1.1895     2.0711     0.0018 C.ar    
   7 C7             3.7130    -0.7899     0.0382 C.3     
   8 N8             4.7852    -0.0283    -0.6133 N.am    
   9 S9             5.1013     1.5492    -0.1413 S.o2    
  10 C10            3.4798     2.2471    -0.0695 C.2     
  11 O11            1.5998     3.3554     0.0036 O.3     
  12 C12            2.9573     3.4424    -0.0543 C.2     
  13 O13            5.5953     1.4981     1.1901 O.2     
  14 O14            5.7826     2.1806    -1.2167 O.2     
  15 C15            5.5797    -0.6470    -1.6774 C.3     
  16 H16           -0.9551     1.9120     0.0170 H       
  17 H17           -0.9395    -0.5331     0.0013 H       
  18 H18            1.1455    -1.8233    -0.0103 H       
  19 H19            3.9874    -0.9599     1.0793 H       
  20 H20            3.6184    -1.7557    -0.4582 H       
  21 H21            3.5187     4.3646    -0.0831 H       
  22 H22            5.1074    -0.4565    -2.6410 H       
  23 H23            6.5837    -0.2225    -1.6747 H       
  24 H24            5.6393    -1.7221    -1.5081 H       
@<TRIPOS>BOND
   1    1    2 ar
   2    1    6 ar
   3    1   16 1
   4    2    3 ar
   5    2   17 1
   6    3    4 ar
   7    3   18 1
   8    4    5 ar
   9    4    7 1
  10    5    6 ar
  11    5   10 1
  12    6   11 1
  13    7    8 1
  14    7   19 1
  15    7   20 1
  16    8    9 am
  17    8   15 1
  18    9   10 1
  19    9   13 2
  20    9   14 2
  21   10   12 2
  22   11   12 1
  23   12   21 1
  24   15   22 1
  25   15   23 1
  26   15   24 1

#	End of record

