#	Name: ASD01913234
#	Creating user name:	WinNT
#	Creation time:	15. 06. 2019 20:01

#	Modifying user name:	WinNT
#	Modification time:	15. 06. 2019 20:01

#	Program:	/corina/corina34_cracker 3.40 0067  02.08.2006

@<TRIPOS>MOLECULE
ASD01913234
  44   47    0    0    0
SMALL
NO_CHARGES


@<TRIPOS>ATOM
   1 C1             0.7301     1.1798    -1.0050 C.3     
   2 N2             0.3534    -0.1342    -0.4728 N.am    
   3 C3             1.3090    -0.7960     0.4309 C.3     
   4 C4             2.5768    -1.0983    -0.3665 C.3     
   5 C5             3.0153     0.1082    -1.1541 C.ar    
   6 C6             4.3351     0.1490    -1.5881 C.ar    
   7 C7             4.8002     1.2203    -2.3211 C.ar    
   8 C8             3.9469     2.2651    -2.6297 C.ar    
   9 C9             2.6363     2.2283    -2.1968 C.ar    
  10 C10            2.1692     1.1518    -1.4553 C.ar    
  11 C11           -0.8201    -0.7121    -0.7975 C.2     
  12 C12           -1.8135     0.0324    -1.5988 C.ar    
  13 C13           -2.6092    -0.6406    -2.5240 C.ar    
  14 C14           -3.5442     0.0685    -3.2764 C.ar    
  15 C15           -3.6772     1.4520    -3.0970 C.ar    
  16 C16           -2.8826     2.1111    -2.1760 C.ar    
  17 C17           -1.9602     1.4114    -1.4256 C.ar    
  18 O18           -1.0612    -1.8459    -0.4312 O.2     
  19 C19           -4.3659    -0.6144    -4.2298 C.1     
  20 C20           -5.0395    -1.1743    -5.0115 C.1     
  21 C21           -5.8612    -1.8572    -5.9649 C.ar    
  22 C22           -6.7964    -1.1393    -6.7154 C.ar    
  23 C23           -7.5817    -1.8138    -7.6321 C.ar    
  24 C24           -7.4095    -3.1847    -7.7718 C.ar    
  25 C25           -6.4656    -3.8336    -6.9973 C.ar    
  26 N26           -5.7253    -3.1691    -6.1339 N.ar    
  27 F27           -4.5819     2.1429    -3.8245 F       
  28 Cl28           4.5218     3.6160    -3.5562 Cl      
  29 H29            0.0897     1.4252    -1.8522 H       
  30 H30            0.6078     1.9345    -0.2281 H       
  31 H31            1.5465    -0.1352     1.2646 H       
  32 H32            0.8792    -1.7247     0.8063 H       
  33 H33            3.3724    -1.3864     0.3206 H       
  34 H34            2.3808    -1.9223    -1.0526 H       
  35 H35            5.0024    -0.6657    -1.3488 H       
  36 H36            5.8276     1.2441    -2.6530 H       
  37 H37            1.9697     3.0436    -2.4364 H       
  38 H38           -2.5016    -1.7068    -2.6579 H       
  39 H39           -2.9878     3.1775    -2.0408 H       
  40 H40           -1.3464     1.9317    -0.7052 H       
  41 H41           -6.9044    -0.0731    -6.5810 H       
  42 H42           -8.3131    -1.2861    -8.2262 H       
  43 H43           -8.0081    -3.7394    -8.4792 H       
  44 H44           -6.3305    -4.8997    -7.1047 H       
@<TRIPOS>BOND
   1    1    2 1
   2    1   10 1
   3    1   29 1
   4    1   30 1
   5    2    3 1
   6    2   11 am
   7    3    4 1
   8    3   31 1
   9    3   32 1
  10    4    5 1
  11    4   33 1
  12    4   34 1
  13    5    6 ar
  14    5   10 ar
  15    6    7 ar
  16    6   35 1
  17    7    8 ar
  18    7   36 1
  19    8    9 ar
  20    8   28 1
  21    9   10 ar
  22    9   37 1
  23   11   12 1
  24   11   18 2
  25   12   13 ar
  26   12   17 ar
  27   13   14 ar
  28   13   38 1
  29   14   15 ar
  30   14   19 1
  31   15   16 ar
  32   15   27 1
  33   16   17 ar
  34   16   39 1
  35   17   40 1
  36   19   20 3
  37   20   21 1
  38   21   22 ar
  39   21   26 ar
  40   22   23 ar
  41   22   41 1
  42   23   24 ar
  43   23   42 1
  44   24   25 ar
  45   24   43 1
  46   25   26 ar
  47   25   44 1

#	End of record

