#	Name: ASD00069221
#	Creating user name:	WinNT
#	Creation time:	15. 06. 2019 18:29

#	Modifying user name:	WinNT
#	Modification time:	15. 06. 2019 18:29

#	Program:	/corina/corina34_cracker 3.40 0067  02.08.2006

@<TRIPOS>MOLECULE
ASD00069221
  73   77    0    0    0
SMALL
NO_CHARGES


@<TRIPOS>ATOM
   1 C1            -0.1160     1.3137    -0.0193 C.2     
   2 N2            -0.0818     0.0005    -0.0221 N.2     
   3 C3             1.1952    -0.4039    -0.0138 C.2     
   4 C4             1.9931     0.7190    -0.0055 C.2     
   5 N5             1.1666     1.7877    -0.0090 N.pl3   
   6 C6            -1.3368     2.1407    -0.0317 C.2     
   7 O7            -1.2496     3.3538    -0.0282 O.2     
   8 N8            -2.5493     1.5524    -0.0470 N.am    
   9 C9             3.3978    -3.3386    -0.0030 C.ar    
  10 N10            2.9704    -2.0858    -0.0040 N.ar    
  11 C11            1.6659    -1.8096    -0.0132 C.ar    
  12 C12            0.7514    -2.8611    -0.0218 C.ar    
  13 C13            1.2417    -4.1653    -0.0204 C.ar    
  14 N14            2.5573    -4.3624    -0.0110 N.ar    
  15 N15            0.3703    -5.2430    -0.0283 N.3     
  16 C16            0.5004    -6.0164    -1.2711 C.3     
  17 C17           -0.5309    -7.1472    -1.2755 C.3     
  18 N18           -0.3192    -8.0043    -0.1006 N.3     
  19 C19           -0.4492    -7.2310     1.1422 C.3     
  20 C20            0.5821    -6.1001     1.1465 C.3     
  21 C21            0.2569    -5.0989    -2.4711 C.3     
  22 N22            4.7596    -3.5855     0.0008 N.pl3   
  23 C23            5.7067    -2.4677     0.0037 C.3     
  24 C24           -3.7074     2.3322     0.0608 C.ar    
  25 C25           -4.8697     1.9539    -0.6099 C.ar    
  26 C26           -6.0146     2.7318    -0.4988 C.ar    
  27 C27           -5.9986     3.8786     0.2763 C.ar    
  28 C28           -4.8450     4.2523     0.9408 C.ar    
  29 C29           -3.7029     3.4802     0.8398 C.ar    
  30 F30           -7.1432     2.3698    -1.1470 F       
  31 N31           -4.8824     0.7931    -1.3938 N.3     
  32 C32           -5.8829    -0.1629    -0.9023 C.3     
  33 C33           -5.7691    -1.4714    -1.6878 C.3     
  34 C34           -5.9936    -1.1889    -3.1758 C.3     
  35 C35           -4.9696    -0.1543    -3.6510 C.3     
  36 C36           -5.1066     1.1160    -2.8087 C.3     
  37 C37           -5.8209    -2.4830    -3.9736 C.3     
  38 N38           -6.1531    -2.2371    -5.3833 N.3     
  39 H39            3.0729     0.7408     0.0029 H       
  40 H40            1.4340     2.7201    -0.0049 H       
  41 H41           -2.6197     0.5887    -0.1326 H       
  42 H42           -0.3115    -2.6697    -0.0291 H       
  43 H43            1.5033    -6.4386    -1.3334 H       
  44 H44           -1.5348    -6.7240    -1.2406 H       
  45 H45           -0.4170    -7.7398    -2.1832 H       
  46 H46           -0.9536    -8.7889    -0.1064 H       
  47 H47           -1.4522    -6.8087     1.2045 H       
  48 H48           -0.2758    -7.8846     1.9971 H       
  49 H49            1.5860    -6.5233     1.1117 H       
  50 H50            0.4682    -5.5075     2.0542 H       
  51 H51            1.0434    -4.3457    -2.5181 H       
  52 H52            0.2641    -5.6894    -3.3873 H       
  53 H53           -0.7103    -4.6081    -2.3628 H       
  54 H54            5.0870    -4.4985     0.0016 H       
  55 H55            5.5520    -1.8582    -0.8867 H       
  56 H56            5.5470    -1.8585     0.8933 H       
  57 H57            6.7256    -2.8548     0.0065 H       
  58 H58           -6.8893     4.4832     0.3619 H       
  59 H59           -4.8375     5.1481     1.5440 H       
  60 H60           -2.8053     3.7729     1.3643 H       
  61 H61           -5.7094    -0.3582     0.1559 H       
  62 H62           -6.8807     0.2551    -1.0355 H       
  63 H63           -4.7759    -1.8970    -1.5439 H       
  64 H64           -6.5221    -2.1752    -1.3333 H       
  65 H65           -7.0007    -0.7996    -3.3248 H       
  66 H66           -3.9639    -0.5592    -3.5381 H       
  67 H67           -5.1515     0.0828    -4.6993 H       
  68 H68           -6.1081     1.5279    -2.9329 H       
  69 H69           -4.3693     1.8494    -3.1351 H       
  70 H70           -4.7877    -2.8216    -3.8975 H       
  71 H71           -6.4847    -3.2486    -3.5721 H       
  72 H72           -5.5949    -1.4861    -5.7607 H       
  73 H73           -6.0468    -3.0774    -5.9317 H       
@<TRIPOS>BOND
   1    1    2 2
   2    1    5 1
   3    1    6 1
   4    2    3 1
   5    3    4 2
   6    3   11 1
   7    4    5 1
   8    4   39 1
   9    5   40 1
  10    6    7 2
  11    6    8 am
  12    8   24 1
  13    8   41 1
  14    9   10 ar
  15    9   14 ar
  16    9   22 1
  17   10   11 ar
  18   11   12 ar
  19   12   13 ar
  20   12   42 1
  21   13   14 ar
  22   13   15 1
  23   15   16 1
  24   15   20 1
  25   16   17 1
  26   16   21 1
  27   16   43 1
  28   17   18 1
  29   17   44 1
  30   17   45 1
  31   18   19 1
  32   18   46 1
  33   19   20 1
  34   19   47 1
  35   19   48 1
  36   20   49 1
  37   20   50 1
  38   21   51 1
  39   21   52 1
  40   21   53 1
  41   22   23 1
  42   22   54 1
  43   23   55 1
  44   23   56 1
  45   23   57 1
  46   24   25 ar
  47   24   29 ar
  48   25   26 ar
  49   25   31 1
  50   26   27 ar
  51   26   30 1
  52   27   28 ar
  53   27   58 1
  54   28   29 ar
  55   28   59 1
  56   29   60 1
  57   31   32 1
  58   31   36 1
  59   32   33 1
  60   32   61 1
  61   32   62 1
  62   33   34 1
  63   33   63 1
  64   33   64 1
  65   34   35 1
  66   34   37 1
  67   34   65 1
  68   35   36 1
  69   35   66 1
  70   35   67 1
  71   36   68 1
  72   36   69 1
  73   37   38 1
  74   37   70 1
  75   37   71 1
  76   38   72 1
  77   38   73 1

#	End of record

