#	Name: ASD01230103
#	Creating user name:	WinNT
#	Creation time:	15. 06. 2019 19:11

#	Modifying user name:	WinNT
#	Modification time:	15. 06. 2019 19:11

#	Program:	/corina/corina34_cracker 3.40 0067  02.08.2006

@<TRIPOS>MOLECULE
ASD01230103
  45   49    0    0    0
SMALL
NO_CHARGES


@<TRIPOS>ATOM
   1 N1            -0.0167     1.3832     0.0096 N.am    
   2 C2             0.0021    -0.0041     0.0020 C.2     
   3 N3            -1.1481    -0.7330     0.0091 N.pl3   
   4 C4            -2.3868    -0.1003     0.0240 C.ar    
   5 C5            -2.4440     1.3044     0.0318 C.ar    
   6 C6            -1.1817     2.0627     0.0300 C.2     
   7 C7             1.0443    -0.8832    -0.0131 C.2     
   8 C8             0.5121    -2.1833    -0.0152 C.2     
   9 N9            -0.8008    -2.0914    -0.0019 N.2     
  10 C10           -3.5608    -0.8340     0.0307 C.ar    
  11 C11           -4.7860    -0.1715     0.0452 C.ar    
  12 C12           -4.8326     1.2252     0.0524 C.ar    
  13 C13           -3.6781     1.9554     0.0468 C.ar    
  14 C14            1.2961    -3.4445    -0.0309 C.2     
  15 C15            1.2486     2.1215     0.0015 C.3     
  16 C16            0.7898    -4.7070    -0.1345 C.2     
  17 O17           -1.1894     3.2795     0.0370 O.2     
  18 C18           -6.0464    -0.9515     0.0524 C.ar    
  19 C19           -6.0150    -2.3440     0.0449 C.ar    
  20 N20           -7.1326    -3.0416     0.0513 N.ar    
  21 C21           -8.3206    -2.4551     0.0655 C.ar    
  22 C22           -8.4319    -1.0672     0.0737 C.ar    
  23 C23           -7.2849    -0.2989     0.0728 C.ar    
  24 N24           -9.4695    -3.2346     0.0718 N.pl3   
  25 C25            2.6976    -3.5541     0.0523 C.2     
  26 N26            3.0092    -4.8224     0.0063 N.2     
  27 N27            1.8288    -5.5664    -0.1108 N.pl3   
  28 C28            1.7381    -7.0263    -0.1926 C.3     
  29 H29            2.0931    -0.6257    -0.0219 H       
  30 H30           -3.5270    -1.9135     0.0244 H       
  31 H31           -5.7871     1.7303     0.0633 H       
  32 H32           -3.7205     3.0345     0.0524 H       
  33 H33            1.5526     2.3101    -1.0281 H       
  34 H34            1.1189     3.0705     0.5217 H       
  35 H35            2.0158     1.5331     0.5049 H       
  36 H36           -0.2540    -4.9705    -0.2199 H       
  37 H37           -5.0647    -2.8572     0.0333 H       
  38 H38           -9.4042    -0.5973     0.0849 H       
  39 H39           -7.3417     0.7796     0.0791 H       
  40 H40           -9.3992    -4.2020     0.0658 H       
  41 H41          -10.3424    -2.8118     0.0821 H       
  42 H42            3.3938    -2.7330     0.1387 H       
  43 H43            1.6480    -7.4415     0.8112 H       
  44 H44            0.8631    -7.3036    -0.7804 H       
  45 H45            2.6358    -7.4199    -0.6694 H       
@<TRIPOS>BOND
   1    1    2 1
   2    1   15 1
   3    1    6 am
   4    2    3 1
   5    2    7 2
   6    3    4 1
   7    3    9 1
   8    4    5 ar
   9    4   10 ar
  10    5    6 1
  11    5   13 ar
  12    6   17 2
  13    7    8 1
  14    7   29 1
  15    8    9 2
  16    8   14 1
  17   10   11 ar
  18   10   30 1
  19   11   12 ar
  20   11   18 1
  21   12   13 ar
  22   12   31 1
  23   13   32 1
  24   14   25 1
  25   14   16 2
  26   15   33 1
  27   15   34 1
  28   15   35 1
  29   16   27 1
  30   16   36 1
  31   18   19 ar
  32   18   23 ar
  33   19   20 ar
  34   19   37 1
  35   20   21 ar
  36   21   22 ar
  37   21   24 1
  38   22   23 ar
  39   22   38 1
  40   23   39 1
  41   24   40 1
  42   24   41 1
  43   25   26 2
  44   25   42 1
  45   26   27 1
  46   27   28 1
  47   28   43 1
  48   28   44 1
  49   28   45 1

#	End of record

