#	Name: ASD00431356
#	Creating user name:	WinNT
#	Creation time:	15. 06. 2019 18:35

#	Modifying user name:	WinNT
#	Modification time:	15. 06. 2019 18:35

#	Program:	/corina/corina34_cracker 3.40 0067  02.08.2006

@<TRIPOS>MOLECULE
ASD00431356
  27   28    0    0    0
SMALL
NO_CHARGES


@<TRIPOS>ATOM
   1 S1            -1.8437     1.4546     1.3482 S.3     
   2 C2            -1.3531    -0.1748     1.1863 C.2     
   3 N3            -1.2596    -0.7365     2.3535 N.2     
   4 C4            -1.5428     0.0043     3.3995 C.2     
   5 C5            -1.8994     1.2758     3.1001 C.2     
   6 C6            -2.2660     2.3194     4.0634 C.2     
   7 Cl7           -2.2674     1.9693     5.7637 Cl      
   8 N8            -2.5897     3.5057     3.6441 N.2     
   9 O9            -1.0986    -0.7922     0.0087 O.3     
  10 C10           -0.8207    -2.1229     0.0326 C.ar    
  11 C11           -1.8445    -3.0422     0.2097 C.ar    
  12 C12           -1.5622    -4.3940     0.2335 C.ar    
  13 C13           -0.2552    -4.8324     0.0802 C.ar    
  14 C14            0.7685    -3.9133    -0.0964 C.ar    
  15 C15            0.4857    -2.5617    -0.1259 C.ar    
  16 O16            0.0226    -6.1633     0.1037 O.3     
  17 C17            1.3903    -6.5435    -0.0603 C.3     
  18 O18           -2.9437     4.5131     4.5740 O.3     
  19 H19           -1.4961    -0.3686     4.4120 H       
  20 H20           -2.8621    -2.7008     0.3294 H       
  21 H21           -2.3592    -5.1097     0.3718 H       
  22 H22            1.7862    -4.2548    -0.2154 H       
  23 H23            1.2822    -1.8463    -0.2679 H       
  24 H24            1.7541    -6.1853    -1.0233 H       
  25 H25            1.9875    -6.1056     0.7395 H       
  26 H26            1.4725    -7.6298    -0.0220 H       
  27 H27           -3.1687     5.3615     4.1682 H       
@<TRIPOS>BOND
   1    1    2 1
   2    1    5 1
   3    2    3 2
   4    2    9 1
   5    3    4 1
   6    4    5 2
   7    4   19 1
   8    5    6 1
   9    6    7 1
  10    6    8 2
  11    8   18 1
  12    9   10 1
  13   10   11 ar
  14   10   15 ar
  15   11   12 ar
  16   11   20 1
  17   12   13 ar
  18   12   21 1
  19   13   14 ar
  20   13   16 1
  21   14   15 ar
  22   14   22 1
  23   15   23 1
  24   16   17 1
  25   17   24 1
  26   17   25 1
  27   17   26 1
  28   18   27 1

#	End of record

