#	Name: ASD01884393
#	Creating user name:	WinNT
#	Creation time:	15. 06. 2019 19:48

#	Modifying user name:	WinNT
#	Modification time:	15. 06. 2019 19:48

#	Program:	/corina/corina34_cracker 3.40 0067  02.08.2006

@<TRIPOS>MOLECULE
ASD01884393
  64   67    0    0    0
SMALL
NO_CHARGES


@<TRIPOS>ATOM
   1 C1            -0.0168     1.3884     0.0097 C.2     
   2 C2             0.0021    -0.0041     0.0020 C.2     
   3 C3            -1.2095    -0.6965     0.0104 C.2     
   4 C4            -2.3831    -0.0157     0.0252 C.2     
   5 N5            -2.4093     1.3392     0.0327 N.am    
   6 C6            -1.2693     2.0558     0.0312 C.2     
   7 O7            -1.3129     3.2741     0.0380 O.2     
   8 C8            -3.6983     2.0352     0.0483 C.3     
   9 C9             1.2059     2.1337     0.0020 C.1     
  10 N10            2.1759     2.7249    -0.0041 N.1     
  11 N11            1.6901    -1.1066     1.3585 N.3     
  12 C12            2.8290    -2.0352     1.3670 C.3     
  13 C13            3.2431    -2.3172     2.8131 C.3     
  14 N14            2.1012    -2.8822     3.5456 N.3     
  15 C15            0.9623    -1.9536     3.5371 C.3     
  16 C16            0.5482    -1.6716     2.0910 C.3     
  17 N17            2.4769    -3.2337     4.9056 N.3     
  18 C18           -4.1338     2.2698     1.4962 C.3     
  19 C19            1.3105    -0.7515    -0.0155 C.3     
  20 C20           -5.4800     2.9967     1.5124 C.3     
  21 C21           -5.9753     3.1206     2.9547 C.3     
  22 C22           -5.3132     4.3926     0.9087 C.3     
  23 C23            3.0340    -2.0762     5.6126 C.3     
  24 C24            3.3264    -2.4257     7.0483 C.ar    
  25 C25            2.7720    -3.5322     7.6549 C.ar    
  26 C26            1.8459    -4.4608     6.9123 C.3     
  27 C27            1.3277    -3.7782     5.6461 C.3     
  28 C28            4.1786    -1.6010     7.7683 C.ar    
  29 C29            4.4720    -1.8818     9.0874 C.ar    
  30 C30            3.9138    -2.9907     9.6960 C.ar    
  31 C31            3.0661    -3.8125     8.9809 C.ar    
  32 H32           -1.2130    -1.7765     0.0046 H       
  33 H33           -3.3137    -0.5638     0.0308 H       
  34 H34           -3.5999     2.9937    -0.4613 H       
  35 H35           -4.4456     1.4275    -0.4619 H       
  36 H36            2.5411    -2.9683     0.8826 H       
  37 H37            3.6659    -1.5892     0.8295 H       
  38 H38            4.0692    -3.0283     2.8228 H       
  39 H39            3.5569    -1.3883     3.2893 H       
  40 H40            0.1254    -2.3996     4.0746 H       
  41 H41            1.2502    -1.0205     4.0215 H       
  42 H42           -0.2779    -0.9605     2.0813 H       
  43 H43            0.2344    -2.6005     1.6148 H       
  44 H44           -4.2323     1.3113     2.0058 H       
  45 H45           -3.3866     2.8775     2.0064 H       
  46 H46            1.2023    -1.6595    -0.6087 H       
  47 H47            2.0835    -0.1207    -0.4544 H       
  48 H48           -6.2051     2.4317     0.9266 H       
  49 H49           -5.2502     3.6856     3.5406 H       
  50 H50           -6.9344     3.6385     2.9663 H       
  51 H51           -6.0942     2.1261     3.3848 H       
  52 H52           -4.9604     4.3043    -0.1188 H       
  53 H53           -6.2723     4.9105     0.9203 H       
  54 H54           -4.5881     4.9575     1.4946 H       
  55 H55            3.9569    -1.7655     5.1229 H       
  56 H56            2.3169    -1.2559     5.5809 H       
  57 H57            2.3851    -5.3680     6.6397 H       
  58 H58            1.0037    -4.7211     7.5535 H       
  59 H59            0.6501    -2.9688     5.9176 H       
  60 H60            0.8040    -4.5058     5.0260 H       
  61 H61            4.6152    -0.7346     7.2939 H       
  62 H62            5.1366    -1.2368     9.6429 H       
  63 H63            4.1407    -3.2135    10.7281 H       
  64 H64            2.6299    -4.6785     9.4564 H       
@<TRIPOS>BOND
   1    1    2 2
   2    1    9 1
   3    1    6 1
   4    2    3 1
   5    2   19 1
   6    3    4 2
   7    3   32 1
   8    4    5 1
   9    4   33 1
  10    5    6 am
  11    5    8 1
  12    6    7 2
  13    8   18 1
  14    8   34 1
  15    8   35 1
  16    9   10 3
  17   11   12 1
  18   11   16 1
  19   11   19 1
  20   12   13 1
  21   12   36 1
  22   12   37 1
  23   13   14 1
  24   13   38 1
  25   13   39 1
  26   14   15 1
  27   14   17 1
  28   15   16 1
  29   15   40 1
  30   15   41 1
  31   16   42 1
  32   16   43 1
  33   17   23 1
  34   17   27 1
  35   18   20 1
  36   18   44 1
  37   18   45 1
  38   19   46 1
  39   19   47 1
  40   20   21 1
  41   20   22 1
  42   20   48 1
  43   21   49 1
  44   21   50 1
  45   21   51 1
  46   22   52 1
  47   22   53 1
  48   22   54 1
  49   23   24 1
  50   23   55 1
  51   23   56 1
  52   24   25 ar
  53   24   28 ar
  54   25   26 1
  55   25   31 ar
  56   26   27 1
  57   26   57 1
  58   26   58 1
  59   27   59 1
  60   27   60 1
  61   28   29 ar
  62   28   61 1
  63   29   30 ar
  64   29   62 1
  65   30   31 ar
  66   30   63 1
  67   31   64 1

#	End of record

