#	Name: ASD01883201
#	Creating user name:	WinNT
#	Creation time:	15. 06. 2019 19:46

#	Modifying user name:	WinNT
#	Modification time:	15. 06. 2019 19:46

#	Program:	/corina/corina34_cracker 3.40 0067  02.08.2006

@<TRIPOS>MOLECULE
ASD01883201
  48   50    0    0    0
SMALL
NO_CHARGES


@<TRIPOS>ATOM
   1 N1            -0.0677     1.2328     1.3325 N.am    
   2 C2            -0.0481     0.0630     0.6672 C.2     
   3 C3            -1.2576    -0.6358     0.4307 C.2     
   4 C4            -2.4606    -0.0817     0.9031 C.2     
   5 C5            -2.4149     1.1460     1.5926 C.2     
   6 C6            -1.2293     1.7646     1.7928 C.2     
   7 O7             1.0092    -0.3945     0.2681 O.2     
   8 C8            -1.2551    -1.8814    -0.2759 C.1     
   9 N9            -1.2532    -2.8695    -0.8363 N.1     
  10 C10            1.1908     1.9441     1.5701 C.3     
  11 C11            1.4651     2.8982     0.4059 C.3     
  12 C12            2.7794     3.6410     0.6542 C.3     
  13 C13            3.1171     4.5014    -0.5651 C.3     
  14 C14            2.6342     4.5368     1.8860 C.3     
  15 C15           -3.7472    -0.7733     0.6803 C.ar    
  16 C16           -4.4768    -1.2622     1.7669 C.ar    
  17 C17           -5.6760    -1.9059     1.5552 C.ar    
  18 C18           -6.1604    -2.0693     0.2627 C.ar    
  19 C19           -5.4372    -1.5847    -0.8209 C.ar    
  20 C20           -4.2400    -0.9348    -0.6169 C.ar    
  21 O21           -7.3426    -2.7042     0.0581 O.3     
  22 C22           -8.4784    -1.9582     0.0735 C.ar    
  23 C23           -9.7214    -2.5670    -0.0223 C.ar    
  24 N24          -10.8258    -1.8473    -0.0072 N.ar    
  25 C25          -10.7971    -0.5333     0.0983 C.ar    
  26 C26           -9.5964     0.1448     0.1975 C.ar    
  27 C27           -8.4117    -0.5732     0.1915 C.ar    
  28 H28           -3.3260     1.5910     1.9644 H       
  29 H29           -1.2066     2.7054     2.3228 H       
  30 H30            1.1170     2.5134     2.4968 H       
  31 H31            2.0055     1.2244     1.6498 H       
  32 H32            1.5389     2.3289    -0.5207 H       
  33 H33            0.6504     3.6179     0.3263 H       
  34 H34            3.5787     2.9191     0.8221 H       
  35 H35            2.3179     5.2232    -0.7331 H       
  36 H36            4.0535     5.0306    -0.3883 H       
  37 H37            3.2206     3.8632    -1.4427 H       
  38 H38            1.8349     5.2587     1.7180 H       
  39 H39            2.3936     3.9239     2.7546 H       
  40 H40            3.5705     5.0660     2.0628 H       
  41 H41           -4.1009    -1.1359     2.7714 H       
  42 H42           -6.2404    -2.2844     2.3946 H       
  43 H43           -5.8165    -1.7141    -1.8238 H       
  44 H44           -3.6789    -0.5582    -1.4593 H       
  45 H45           -9.7848    -3.6415    -0.1104 H       
  46 H46          -11.7241     0.0208     0.1069 H       
  47 H47           -9.5823     1.2213     0.2832 H       
  48 H48           -7.4592    -0.0697     0.2679 H       
@<TRIPOS>BOND
   1    1    2 am
   2    1   10 1
   3    1    6 1
   4    2    3 1
   5    2    7 2
   6    3    4 2
   7    3    8 1
   8    4    5 1
   9    4   15 1
  10    5    6 2
  11    5   28 1
  12    6   29 1
  13    8    9 3
  14   10   11 1
  15   10   30 1
  16   10   31 1
  17   11   12 1
  18   11   32 1
  19   11   33 1
  20   12   13 1
  21   12   14 1
  22   12   34 1
  23   13   35 1
  24   13   36 1
  25   13   37 1
  26   14   38 1
  27   14   39 1
  28   14   40 1
  29   15   16 ar
  30   15   20 ar
  31   16   17 ar
  32   16   41 1
  33   17   18 ar
  34   17   42 1
  35   18   19 ar
  36   18   21 1
  37   19   20 ar
  38   19   43 1
  39   20   44 1
  40   21   22 1
  41   22   23 ar
  42   22   27 ar
  43   23   24 ar
  44   23   45 1
  45   24   25 ar
  46   25   26 ar
  47   25   46 1
  48   26   27 ar
  49   26   47 1
  50   27   48 1

#	End of record

