#	Name: ASD03230007
#	Creating user name:	WinNT
#	Creation time:	15. 06. 2019 20:34

#	Modifying user name:	WinNT
#	Modification time:	15. 06. 2019 20:34

#	Program:	/corina/corina34_cracker 3.40 0067  02.08.2006

@<TRIPOS>MOLECULE
ASD03230007
  27   27    0    0    0
SMALL
NO_CHARGES


@<TRIPOS>ATOM
   1 C1            -0.0168     1.3903     0.0097 C.ar    
   2 C2             0.0021    -0.0041     0.0020 C.ar    
   3 C3            -1.1886    -0.7188     0.0095 C.ar    
   4 C4            -2.3949    -0.0542     0.0242 C.ar    
   5 C5            -2.4223     1.3452     0.0320 C.ar    
   6 C6            -1.2215     2.0647     0.0306 C.ar    
   7 C7            -3.7079     2.0570     0.0471 C.2     
   8 C8            -4.8656     1.3607     0.0535 C.2     
   9 C9            -6.1059     2.0474     0.0681 C.2     
  10 O10           -7.2621     1.3519     0.0745 O.3     
  11 O11           -6.1276     3.2637     0.0748 O.2     
  12 O12            1.1517     2.0860     0.0023 O.3     
  13 C13            1.0578     3.5119     0.0108 C.3     
  14 O14            1.1885    -0.6650    -0.0133 O.3     
  15 C15            1.1355    -2.0930    -0.0204 C.3     
  16 H16           -1.1686    -1.7986     0.0036 H       
  17 H17           -3.3193    -0.6127     0.0293 H       
  18 H18           -1.2374     3.1446     0.0369 H       
  19 H19           -3.7273     3.1369     0.0531 H       
  20 H20           -4.8462     0.2809     0.0475 H       
  21 H21           -8.0544     1.9061     0.0844 H       
  22 H22            0.5128     3.8454    -0.8722 H       
  23 H23            0.5298     3.8358     0.9076 H       
  24 H24            2.0594     3.9420     0.0036 H       
  25 H25            0.6174    -2.4419     0.8729 H       
  26 H26            0.5997    -2.4323    -0.9070 H       
  27 H27            2.1489    -2.4942    -0.0327 H       
@<TRIPOS>BOND
   1    1    2 ar
   2    1   12 1
   3    1    6 ar
   4    2    3 ar
   5    2   14 1
   6    3    4 ar
   7    3   16 1
   8    4    5 ar
   9    4   17 1
  10    5    6 ar
  11    5    7 1
  12    6   18 1
  13    7    8 2
  14    7   19 1
  15    8    9 1
  16    8   20 1
  17    9   10 1
  18    9   11 2
  19   10   21 1
  20   12   13 1
  21   13   22 1
  22   13   23 1
  23   13   24 1
  24   14   15 1
  25   15   25 1
  26   15   26 1
  27   15   27 1

#	End of record

