#	Name: ASD01911009
#	Creating user name:	WinNT
#	Creation time:	15. 06. 2019 19:56

#	Modifying user name:	WinNT
#	Modification time:	15. 06. 2019 19:56

#	Program:	/corina/corina34_cracker 3.40 0067  02.08.2006

@<TRIPOS>MOLECULE
ASD01911009
  55   58    0    0    0
SMALL
NO_CHARGES


@<TRIPOS>ATOM
   1 N1            -0.0070     1.4315     0.0155 N.am    
   2 C2            -0.0005    -0.0249     0.0230 C.3     
   3 C3            -1.3243    -0.5707     0.5616 C.3     
   4 N4            -2.4231     0.1546    -0.0981 N.am    
   5 C5            -2.4947     1.6080     0.1139 C.3     
   6 C6            -1.1084     2.1838     0.0189 C.2     
   7 C7            -3.3260    -0.4874    -0.8655 C.2     
   8 C8            -4.4889     0.2443    -1.4059 C.ar    
   9 C9            -5.0894     1.2577    -0.6522 C.ar    
  10 C10           -6.1750     1.9440    -1.1516 C.ar    
  11 C11           -6.6811     1.6346    -2.4058 C.ar    
  12 C12           -6.0866     0.6184    -3.1720 C.ar    
  13 C13           -4.9850    -0.0710    -2.6702 C.ar    
  14 C14           -6.6071     0.2966    -4.4667 C.1     
  15 O15           -3.1830    -1.6692    -1.1127 O.2     
  16 C16           -7.0338     0.0328    -5.5281 C.1     
  17 C17           -7.5543    -0.2890    -6.8228 C.ar    
  18 N18           -6.9860    -1.2523    -7.5420 N.ar    
  19 C19           -7.4356    -1.5774    -8.7368 C.ar    
  20 C20           -8.5214    -0.9240    -9.2897 C.ar    
  21 C21           -9.1459     0.0889    -8.5736 C.ar    
  22 C22           -8.6595     0.4078    -7.3192 C.ar    
  23 C23            1.2869     2.1184     0.0097 C.3     
  24 O24           -7.7499     2.3131    -2.8919 O.3     
  25 C25           -8.3044     3.3332    -2.0589 C.3     
  26 O26           -0.9866     3.3874    -0.0666 O.2     
  27 C27            1.7281     2.3466    -1.4131 C.ar    
  28 C28            1.3692     3.5087    -2.0701 C.ar    
  29 C29            1.7738     3.7180    -3.3753 C.ar    
  30 C30            2.5379     2.7654    -4.0232 C.ar    
  31 C31            2.8976     1.6038    -3.3659 C.ar    
  32 C32            2.4966     1.3964    -2.0593 C.ar    
  33 H33            0.1503    -0.3883    -0.9936 H       
  34 H34            0.8159    -0.3768     0.6537 H       
  35 H35           -1.4008    -1.6352     0.3397 H       
  36 H36           -1.3753    -0.4145     1.6392 H       
  37 H37           -3.1325     2.0570    -0.6474 H       
  38 H38           -2.9043     1.8129     1.1030 H       
  39 H39           -4.7010     1.5032     0.3252 H       
  40 H40           -6.6339     2.7255    -0.5642 H       
  41 H41           -4.5231    -0.8535    -3.2540 H       
  42 H42           -6.9489    -2.3653    -9.2924 H       
  43 H43           -8.8807    -1.1987   -10.2705 H       
  44 H44           -9.9956     0.6130    -8.9856 H       
  45 H45           -9.1216     1.1899    -6.7350 H       
  46 H46            1.1914     3.0775     0.5187 H       
  47 H47            2.0261     1.5053     0.5254 H       
  48 H48           -8.6393     2.8931    -1.1196 H       
  49 H49           -7.5455     4.0889    -1.8559 H       
  50 H50           -9.1512     3.7958    -2.5657 H       
  51 H51            0.7722     4.2528    -1.5639 H       
  52 H52            1.4928     4.6255    -3.8888 H       
  53 H53            2.8534     2.9286    -5.0431 H       
  54 H54            3.4943     0.8595    -3.8722 H       
  55 H55            2.7777     0.4889    -1.5457 H       
@<TRIPOS>BOND
   1    1    2 1
   2    1   23 1
   3    1    6 am
   4    2    3 1
   5    2   33 1
   6    2   34 1
   7    3    4 1
   8    3   35 1
   9    3   36 1
  10    4    5 1
  11    4    7 am
  12    5    6 1
  13    5   37 1
  14    5   38 1
  15    6   26 2
  16    7    8 1
  17    7   15 2
  18    8    9 ar
  19    8   13 ar
  20    9   10 ar
  21    9   39 1
  22   10   11 ar
  23   10   40 1
  24   11   12 ar
  25   11   24 1
  26   12   13 ar
  27   12   14 1
  28   13   41 1
  29   14   16 3
  30   16   17 1
  31   17   18 ar
  32   17   22 ar
  33   18   19 ar
  34   19   20 ar
  35   19   42 1
  36   20   21 ar
  37   20   43 1
  38   21   22 ar
  39   21   44 1
  40   22   45 1
  41   23   27 1
  42   23   46 1
  43   23   47 1
  44   24   25 1
  45   25   48 1
  46   25   49 1
  47   25   50 1
  48   27   28 ar
  49   27   32 ar
  50   28   29 ar
  51   28   51 1
  52   29   30 ar
  53   29   52 1
  54   30   31 ar
  55   30   53 1
  56   31   32 ar
  57   31   54 1
  58   32   55 1

#	End of record

