#	Name: ASD04880497
#	Creating user name:	WinNT
#	Creation time:	15. 06. 2019 20:53

#	Modifying user name:	WinNT
#	Modification time:	15. 06. 2019 20:53

#	Program:	/corina/corina34_cracker 3.40 0067  02.08.2006

@<TRIPOS>MOLECULE
ASD04880497
  43   46    0    0    0
SMALL
NO_CHARGES


@<TRIPOS>ATOM
   1 C1            -0.8718     0.7922     0.5586 C.2     
   2 O2            -1.0813    -0.4047     0.5123 O.2     
   3 C3             0.4985     1.2941     0.7921 C.ar    
   4 C4             1.5302     0.4022     1.0901 C.ar    
   5 C5             2.8089     0.8785     1.3072 C.ar    
   6 C6             3.0666     2.2381     1.2299 C.ar    
   7 C7             2.0474     3.1252     0.9349 C.ar    
   8 C8             0.7675     2.6613     0.7098 C.ar    
   9 F9             3.8093     0.0177     1.5959 F       
  10 N10           -1.8884     1.6612     0.3914 N.am    
  11 N11           -1.8043     3.0444     0.5365 N.2     
  12 C12           -2.9144     3.6645     0.3235 C.2     
  13 C13           -3.9922     2.6639    -0.0277 C.3     
  14 C14           -3.2668     1.3045     0.0197 C.3     
  15 C15           -3.4156     5.8655    -0.7443 C.ar    
  16 C16           -3.1036     5.1222     0.4096 C.ar    
  17 C17           -2.9751     5.7763     1.6361 C.ar    
  18 C18           -3.1539     7.1420     1.7105 C.ar    
  19 C19           -3.4614     7.8718     0.5743 C.ar    
  20 C20           -3.5929     7.2423    -0.6476 C.ar    
  21 C21           -3.5494     5.1869    -2.0547 C.ar    
  22 C22           -4.7196     5.3281    -2.7998 C.ar    
  23 C23           -4.8382     4.6941    -4.0197 C.ar    
  24 C24           -3.7993     3.9192    -4.5035 C.ar    
  25 C25           -2.6362     3.7750    -3.7686 C.ar    
  26 C26           -2.5035     4.4092    -2.5503 C.ar    
  27 H27            1.3294    -0.6572     1.1511 H       
  28 H28            4.0673     2.6064     1.4010 H       
  29 H29            2.2546     4.1836     0.8764 H       
  30 H30           -0.0259     3.3555     0.4752 H       
  31 H31           -4.7979     2.6967     0.7056 H       
  32 H32           -4.3777     2.8531    -1.0295 H       
  33 H33           -3.2880     0.8223    -0.9576 H       
  34 H34           -3.7135     0.6596     0.7765 H       
  35 H35           -2.7362     5.2133     2.5263 H       
  36 H36           -3.0539     7.6453     2.6608 H       
  37 H37           -3.5995     8.9407     0.6446 H       
  38 H38           -3.8322     7.8190    -1.5288 H       
  39 H39           -5.5316     5.9322    -2.4228 H       
  40 H40           -5.7440     4.8027    -4.5977 H       
  41 H41           -3.8969     3.4246    -5.4586 H       
  42 H42           -1.8287     3.1683    -4.1511 H       
  43 H43           -1.5931     4.2999    -1.9796 H       
@<TRIPOS>BOND
   1    1    2 2
   2    1    3 1
   3    1   10 am
   4    3    4 ar
   5    3    8 ar
   6    4    5 ar
   7    4   27 1
   8    5    6 ar
   9    5    9 1
  10    6    7 ar
  11    6   28 1
  12    7    8 ar
  13    7   29 1
  14    8   30 1
  15   10   11 1
  16   10   14 1
  17   11   12 2
  18   12   13 1
  19   12   16 1
  20   13   14 1
  21   13   31 1
  22   13   32 1
  23   14   33 1
  24   14   34 1
  25   15   16 ar
  26   15   20 ar
  27   15   21 1
  28   16   17 ar
  29   17   18 ar
  30   17   35 1
  31   18   19 ar
  32   18   36 1
  33   19   20 ar
  34   19   37 1
  35   20   38 1
  36   21   22 ar
  37   21   26 ar
  38   22   23 ar
  39   22   39 1
  40   23   24 ar
  41   23   40 1
  42   24   25 ar
  43   24   41 1
  44   25   26 ar
  45   25   42 1
  46   26   43 1

#	End of record

