#	Name: ASD02590054
#	Creating user name:	WinNT
#	Creation time:	15. 06. 2019 20:25

#	Modifying user name:	WinNT
#	Modification time:	15. 06. 2019 20:25

#	Program:	/corina/corina34_cracker 3.40 0067  02.08.2006

@<TRIPOS>MOLECULE
ASD02590054
  22   24    0    0    0
SMALL
NO_CHARGES


@<TRIPOS>ATOM
   1 C1            -0.0168     1.3866     0.0097 C.ar    
   2 C2             0.0021    -0.0041     0.0020 C.ar    
   3 C3            -1.1794    -0.7194     0.0095 C.ar    
   4 C4            -2.3941    -0.0490     0.0251 C.ar    
   5 C5            -2.4212     1.3565     0.0334 C.ar    
   6 C6            -1.2154     2.0692     0.0305 C.ar    
   7 N7            -3.7144    -0.4614     0.0356 N.pl3   
   8 C8            -4.4916     0.6692     0.0497 C.2     
   9 N9            -3.7232     1.7340     0.0483 N.2     
  10 C10           -5.9619     0.6859     0.0632 C.2     
  11 C11           -6.7498     1.7981     0.0772 C.2     
  12 F12           -1.2264     3.4201     0.0388 F       
  13 C13           -8.0831     1.3496     0.0866 C.2     
  14 C14           -8.0476     0.0011     0.0779 C.2     
  15 O15           -6.7661    -0.3961     0.0579 O.3     
  16 F16            1.1465     2.0736     0.0022 F       
  17 F17            1.1835    -0.6593    -0.0132 F       
  18 H18           -1.1578    -1.7992     0.0027 H       
  19 H19           -4.0314    -1.3782     0.0332 H       
  20 H20           -6.4152     2.8250     0.0808 H       
  21 H21           -8.9683     1.9682     0.0987 H       
  22 H22           -8.9085    -0.6511     0.0818 H       
@<TRIPOS>BOND
   1    1    2 ar
   2    1   16 1
   3    1    6 ar
   4    2    3 ar
   5    2   17 1
   6    3    4 ar
   7    3   18 1
   8    4    5 ar
   9    4    7 1
  10    5    6 ar
  11    5    9 1
  12    6   12 1
  13    7    8 1
  14    7   19 1
  15    8    9 2
  16    8   10 1
  17   10   11 2
  18   10   15 1
  19   11   13 1
  20   11   20 1
  21   13   14 2
  22   13   21 1
  23   14   15 1
  24   14   22 1

#	End of record

