#	Name: ASD03540512
#	Creating user name:	WinNT
#	Creation time:	15. 06. 2019 20:43

#	Modifying user name:	WinNT
#	Modification time:	15. 06. 2019 20:43

#	Program:	/corina/corina34_cracker 3.40 0067  02.08.2006

@<TRIPOS>MOLECULE
ASD03540512
  63   66    0    0    0
SMALL
NO_CHARGES


@<TRIPOS>ATOM
   1 N1            -0.0889     1.3007     0.0340 N.am    
   2 C2             0.0563    -0.0353     0.0335 C.2     
   3 N3             1.2510    -0.6383    -0.0686 N.am    
   4 C4             2.3903     0.0792    -0.1781 C.2     
   5 C5             2.2903     1.5503    -0.1834 C.ar    
   6 C6             3.4155     2.3576    -0.2921 C.ar    
   7 C7             3.2626     3.7435    -0.2915 C.ar    
   8 C8             1.9861     4.3088    -0.1821 C.ar    
   9 C9             0.8796     3.5144    -0.0748 C.ar    
  10 C10            1.0125     2.1317    -0.0737 C.ar    
  11 C11            4.4481     4.6161    -0.4057 C.2     
  12 O12            5.5567     4.1262    -0.5002 O.2     
  13 N13            4.3012     5.9559    -0.4051 N.am    
  14 C14            5.4775     6.8217    -0.5184 C.3     
  15 C15            5.0435     8.2646    -0.4932 C.ar    
  16 C16            4.9514     8.9367     0.7117 C.ar    
  17 C17            4.5537    10.2594     0.7375 C.ar    
  18 C18            4.2466    10.9134    -0.4468 C.ar    
  19 C19            4.3398    10.2369    -1.6544 C.ar    
  20 C20            4.7434     8.9159    -1.6754 C.ar    
  21 O21            3.8548    12.2145    -0.4240 O.3     
  22 C22            3.5545    12.8238    -1.6812 C.3     
  23 O23            3.4695    -0.4733    -0.2694 O.2     
  24 O24           -0.9380    -0.7280     0.1301 O.2     
  25 C25           -1.4284     1.8837     0.1437 C.3     
  26 C26            1.3208    -2.1016    -0.0606 C.3     
  27 C27            1.2169    -2.6172    -1.4728 C.ar    
  28 C28            2.3616    -2.7969    -2.2276 C.ar    
  29 C29            2.2699    -3.2692    -3.5221 C.ar    
  30 C30            1.0260    -3.5638    -4.0658 C.ar    
  31 C31           -0.1218    -3.3821    -3.3049 C.ar    
  32 C32           -0.0225    -2.9148    -2.0091 C.ar    
  33 N33            0.9297    -4.0413    -5.3749 N.am    
  34 S34            1.3445    -5.6074    -5.7177 S.o2    
  35 O35            1.1056    -5.7359    -7.1126 O.2     
  36 O36            2.6532    -5.7485    -5.1825 O.2     
  37 C37            0.1599    -6.6062    -4.7744 C.3     
  38 H38            4.3978     1.9167    -0.3758 H       
  39 H39            1.8752     5.3831    -0.1823 H       
  40 H40           -0.0996     3.9622     0.0096 H       
  41 H41            3.4167     6.3468    -0.3297 H       
  42 H42            6.1514     6.6303     0.3167 H       
  43 H43            5.9928     6.6137    -1.4561 H       
  44 H44            5.1902     8.4270     1.6334 H       
  45 H45            4.4816    10.7838     1.6789 H       
  46 H46            4.1013    10.7439    -2.5777 H       
  47 H47            4.8207     8.3902    -2.6156 H       
  48 H48            4.4380    12.7951    -2.3190 H       
  49 H49            2.7410    12.2813    -2.1628 H       
  50 H50            3.2557    13.8596    -1.5208 H       
  51 H51           -2.1674     1.0856     0.2142 H       
  52 H52           -1.4811     2.5076     1.0359 H       
  53 H53           -1.6332     2.4918    -0.7375 H       
  54 H54            2.2697    -2.4177     0.3727 H       
  55 H55            0.4990    -2.5013     0.5335 H       
  56 H56            3.3283    -2.5673    -1.8044 H       
  57 H57            3.1643    -3.4090    -4.1112 H       
  58 H58           -1.0904    -3.6102    -3.7246 H       
  59 H59           -0.9142    -2.7778    -1.4153 H       
  60 H60            0.6198    -3.4554    -6.0832 H       
  61 H61           -0.8556    -6.3094    -5.0366 H       
  62 H62            0.3031    -7.6603    -5.0119 H       
  63 H63            0.3204    -6.4490    -3.7078 H       
@<TRIPOS>BOND
   1    1    2 am
   2    1   10 1
   3    1   25 1
   4    2    3 am
   5    2   24 2
   6    3    4 am
   7    3   26 1
   8    4    5 1
   9    4   23 2
  10    5    6 ar
  11    5   10 ar
  12    6    7 ar
  13    6   38 1
  14    7    8 ar
  15    7   11 1
  16    8    9 ar
  17    8   39 1
  18    9   10 ar
  19    9   40 1
  20   11   12 2
  21   11   13 am
  22   13   14 1
  23   13   41 1
  24   14   15 1
  25   14   42 1
  26   14   43 1
  27   15   16 ar
  28   15   20 ar
  29   16   17 ar
  30   16   44 1
  31   17   18 ar
  32   17   45 1
  33   18   19 ar
  34   18   21 1
  35   19   20 ar
  36   19   46 1
  37   20   47 1
  38   21   22 1
  39   22   48 1
  40   22   49 1
  41   22   50 1
  42   25   51 1
  43   25   52 1
  44   25   53 1
  45   26   27 1
  46   26   54 1
  47   26   55 1
  48   27   28 ar
  49   27   32 ar
  50   28   29 ar
  51   28   56 1
  52   29   30 ar
  53   29   57 1
  54   30   31 ar
  55   30   33 1
  56   31   32 ar
  57   31   58 1
  58   32   59 1
  59   33   34 am
  60   33   60 1
  61   34   35 2
  62   34   36 2
  63   34   37 1
  64   37   61 1
  65   37   62 1
  66   37   63 1

#	End of record

