#	Name: ASD05490014
#	Creating user name:	WinNT
#	Creation time:	15. 06. 2019 21:00

#	Modifying user name:	WinNT
#	Modification time:	15. 06. 2019 21:00

#	Program:	/corina/corina34_cracker 3.40 0067  02.08.2006

@<TRIPOS>MOLECULE
ASD05490014
  67   71    0    0    0
SMALL
NO_CHARGES


@<TRIPOS>ATOM
   1 O1             0.5428     1.9448    -0.5240 O.3     
   2 N2             2.9193     6.1044    -0.2309 N.am    
   3 N3             2.8472     2.0561    -0.5602 N.ar    
   4 C4             3.9901     2.7387    -0.5271 C.ar    
   5 C5             1.6816     2.6786    -0.4865 C.ar    
   6 N6             1.5924     3.9938    -0.3770 N.ar    
   7 C7             2.6879     4.7450    -0.3372 C.ar    
   8 C8             3.9366     4.1267    -0.4127 C.ar    
   9 N9             5.2094     2.0815    -0.6051 N.pl3   
  10 C10            4.2489     6.3173    -0.2452 C.2     
  11 N11            4.8940     5.1386    -0.3493 N.am    
  12 O12            4.7859     7.4067    -0.1689 O.2     
  13 C13            1.8892     7.1408    -0.1264 C.3     
  14 C14            1.5634     7.3807     1.3253 C.ar    
  15 C15            2.2669     8.3325     2.0412 C.ar    
  16 C16            1.9728     8.5563     3.3709 C.ar    
  17 C17            0.9647     7.8218     3.9920 C.ar    
  18 C18            0.2589     6.8646     3.2660 C.ar    
  19 C19            0.5582     6.6524     1.9354 C.ar    
  20 C20            0.6874     0.5281    -0.6425 C.3     
  21 C21           -0.6958    -0.1253    -0.6686 C.3     
  22 C22           -0.5410    -1.6422    -0.7955 C.3     
  23 C23           -1.9242    -2.2956    -0.8216 C.3     
  24 C24            0.6443     8.0577     5.4216 C.ar    
  25 C25           -0.6544     8.3914     5.8013 C.ar    
  26 C26            1.6394     7.9409     6.3896 C.ar    
  27 C27            1.3357     8.1615     7.7180 C.ar    
  28 C28            0.0465     8.4980     8.0886 C.ar    
  29 C29           -0.9468     8.6097     7.1322 C.ar    
  30 C30           -1.7373     8.5140     4.7605 C.3     
  31 N31           -1.5430     9.7528     3.9953 N.3     
  32 C32           -2.3308     9.7331     2.7491 C.3     
  33 C33           -1.9457    10.9339     4.7881 C.3     
  34 C34           -2.5181    11.9309     3.7499 C.3     
  35 C35           -3.2449    10.9763     2.7664 C.3     
  36 H36            5.2352     1.1151    -0.6846 H       
  37 H37            6.0360     2.5884    -0.5800 H       
  38 H38            5.8559     5.0157    -0.3752 H       
  39 H39            2.2563     8.0644    -0.5738 H       
  40 H40            0.9912     6.8147    -0.6512 H       
  41 H41            3.0481     8.9013     1.5588 H       
  42 H42            2.5232     9.2992     3.9291 H       
  43 H43           -0.5234     6.2925     3.7425 H       
  44 H44            0.0115     5.9110     1.3716 H       
  45 H45            1.2178     0.2930    -1.5652 H       
  46 H46            1.2527     0.1482     0.2085 H       
  47 H47           -1.2262     0.1099     0.2541 H       
  48 H48           -1.2611     0.2546    -1.5196 H       
  49 H49           -0.0105    -1.8773    -1.7182 H       
  50 H50            0.0243    -2.0221     0.0555 H       
  51 H51           -2.4895    -1.9157    -1.6726 H       
  52 H52           -1.8138    -3.3762    -0.9120 H       
  53 H53           -2.4546    -2.0604     0.1011 H       
  54 H54            2.6464     7.6779     6.1013 H       
  55 H55            2.1063     8.0709     8.4693 H       
  56 H56           -0.1867     8.6694     9.1291 H       
  57 H57           -1.9518     8.8731     7.4271 H       
  58 H58           -1.6913     7.6591     4.0858 H       
  59 H59           -2.7108     8.5383     5.2502 H       
  60 H60           -1.6637     9.7753     1.8881 H       
  61 H61           -2.9366     8.8279     2.7076 H       
  62 H62           -2.7115    10.6606     5.5140 H       
  63 H63           -1.0808    11.3656     5.2919 H       
  64 H64           -3.2217    12.6200     4.2169 H       
  65 H65           -1.7176    12.4737     3.2472 H       
  66 H66           -3.3088    11.4215     1.7735 H       
  67 H67           -4.2365    10.7203     3.1397 H       
@<TRIPOS>BOND
   1    1   20 1
   2    1    5 1
   3    2   13 1
   4    2    7 1
   5    2   10 am
   6    3    4 ar
   7    3    5 ar
   8    4    9 1
   9    4    8 ar
  10    5    6 ar
  11    6    7 ar
  12    7    8 ar
  13    8   11 1
  14    9   36 1
  15    9   37 1
  16   10   11 am
  17   10   12 2
  18   11   38 1
  19   13   14 1
  20   13   39 1
  21   13   40 1
  22   14   15 ar
  23   14   19 ar
  24   15   16 ar
  25   15   41 1
  26   16   17 ar
  27   16   42 1
  28   17   18 ar
  29   17   24 1
  30   18   19 ar
  31   18   43 1
  32   19   44 1
  33   20   21 1
  34   20   45 1
  35   20   46 1
  36   21   22 1
  37   21   47 1
  38   21   48 1
  39   22   23 1
  40   22   49 1
  41   22   50 1
  42   23   51 1
  43   23   52 1
  44   23   53 1
  45   24   25 ar
  46   24   26 ar
  47   25   30 1
  48   25   29 ar
  49   26   27 ar
  50   26   54 1
  51   27   28 ar
  52   27   55 1
  53   28   29 ar
  54   28   56 1
  55   29   57 1
  56   30   31 1
  57   30   58 1
  58   30   59 1
  59   31   32 1
  60   31   33 1
  61   32   35 1
  62   32   60 1
  63   32   61 1
  64   33   34 1
  65   33   62 1
  66   33   63 1
  67   34   35 1
  68   34   64 1
  69   34   65 1
  70   35   66 1
  71   35   67 1

#	End of record

