#	Name: ASD03092242
#	Creating user name:	WinNT
#	Creation time:	15. 06. 2019 20:32

#	Modifying user name:	WinNT
#	Modification time:	15. 06. 2019 20:32

#	Program:	/corina/corina34_cracker 3.40 0067  02.08.2006

@<TRIPOS>MOLECULE
ASD03092242
  56   59    0    0    0
SMALL
NO_CHARGES


@<TRIPOS>ATOM
   1 C1            -0.0173     1.4248     0.0099 C.3     
   2 O2             0.0021    -0.0041     0.0020 O.3     
   3 C3            -1.1998    -0.6372     0.0101 C.ar    
   4 C4            -2.3733     0.0991     0.0195 C.ar    
   5 C5            -3.5956    -0.5463     0.0282 C.ar    
   6 C6            -3.6552    -1.9285     0.0276 C.ar    
   7 C7            -2.4935    -2.6744     0.0178 C.ar    
   8 C8            -1.2569    -2.0343     0.0031 C.ar    
   9 C9            -0.0056    -2.8311    -0.0136 C.ar    
  10 C10            0.9905    -2.5431    -0.9411 C.ar    
  11 C11            2.1653    -3.2937    -0.9535 C.ar    
  12 C12            2.3377    -4.3307    -0.0361 C.ar    
  13 C13            1.3420    -4.6140     0.8863 C.ar    
  14 C14            0.1751    -3.8649     0.9035 C.ar    
  15 N15            1.5176    -5.6576     1.8075 N.pl3   
  16 C16            2.6238    -6.4099     1.9935 C.2     
  17 N17            2.3571    -7.2631     2.9475 N.2     
  18 N18            1.1578    -7.1016     3.3773 N.2     
  19 N19            0.5818    -6.1405     2.7392 N.2     
  20 C20            3.2268    -2.9916    -1.9378 C.2     
  21 O21            3.0754    -2.0883    -2.7368 O.2     
  22 N22            4.3620    -3.7180    -1.9489 N.am    
  23 C23            5.4136    -3.4187    -2.9240 C.3     
  24 C24            6.5849    -4.3823    -2.7228 C.3     
  25 C25            7.6666    -4.0745    -3.7258 C.ar    
  26 C26            7.6614    -4.6959    -4.9606 C.ar    
  27 C27            8.6536    -4.4135    -5.8807 C.ar    
  28 C28            9.6509    -3.5093    -5.5662 C.ar    
  29 C29            9.6556    -2.8872    -4.3317 C.ar    
  30 C30            8.6609    -3.1664    -3.4133 C.ar    
  31 S31           10.9163    -3.1503    -6.7385 S.o2    
  32 N32           10.3888    -1.8752    -7.6541 N.am    
  33 O33           12.0301    -2.6761    -5.9942 O.2     
  34 O34           10.9844    -4.2698    -7.6111 O.2     
  35 H35            1.0053     1.8021     0.0021 H       
  36 H36           -0.5445     1.7859    -0.8732 H       
  37 H37           -0.5275     1.7763     0.9067 H       
  38 H38           -2.3331     1.1783     0.0204 H       
  39 H39           -4.5083     0.0310     0.0359 H       
  40 H40           -4.6138    -2.4258     0.0352 H       
  41 H41           -2.5438    -3.7532     0.0173 H       
  42 H42            0.8540    -1.7400    -1.6501 H       
  43 H43            3.2470    -4.9133    -0.0448 H       
  44 H44           -0.5967    -4.0856     1.6261 H       
  45 H45            3.5555    -6.3228     1.4543 H       
  46 H46            4.4828    -4.4389    -1.3112 H       
  47 H47            5.0172    -3.5342    -3.9327 H       
  48 H48            5.7579    -2.3940    -2.7840 H       
  49 H49            6.9813    -4.2668    -1.7140 H       
  50 H50            6.2406    -5.4070    -2.8627 H       
  51 H51            6.8823    -5.4023    -5.2064 H       
  52 H52            8.6500    -4.8995    -6.8452 H       
  53 H53           10.4349    -2.1811    -4.0859 H       
  54 H54            8.6625    -2.6775    -2.4502 H       
  55 H55           11.0288    -1.2523    -8.0327 H       
  56 H56            9.4398    -1.7512    -7.8119 H       
@<TRIPOS>BOND
   1    1    2 1
   2    1   35 1
   3    1   36 1
   4    1   37 1
   5    2    3 1
   6    3    8 ar
   7    3    4 ar
   8    4    5 ar
   9    4   38 1
  10    5    6 ar
  11    5   39 1
  12    6    7 ar
  13    6   40 1
  14    7    8 ar
  15    7   41 1
  16    8    9 1
  17    9   14 ar
  18    9   10 ar
  19   10   11 ar
  20   10   42 1
  21   11   12 ar
  22   11   20 1
  23   12   13 ar
  24   12   43 1
  25   13   14 ar
  26   13   15 1
  27   14   44 1
  28   15   19 1
  29   15   16 1
  30   16   17 2
  31   16   45 1
  32   17   18 1
  33   18   19 2
  34   20   21 2
  35   20   22 am
  36   22   23 1
  37   22   46 1
  38   23   24 1
  39   23   47 1
  40   23   48 1
  41   24   25 1
  42   24   49 1
  43   24   50 1
  44   25   30 ar
  45   25   26 ar
  46   26   27 ar
  47   26   51 1
  48   27   28 ar
  49   27   52 1
  50   28   29 ar
  51   28   31 1
  52   29   30 ar
  53   29   53 1
  54   30   54 1
  55   31   32 am
  56   31   33 2
  57   31   34 2
  58   32   55 1
  59   32   56 1

#	End of record

