#	Name: ASD01320032
#	Creating user name:	WinNT
#	Creation time:	15. 06. 2019 19:15

#	Modifying user name:	WinNT
#	Modification time:	15. 06. 2019 19:15

#	Program:	/corina/corina34_cracker 3.40 0067  02.08.2006

@<TRIPOS>MOLECULE
ASD01320032
  45   48    0    0    0
SMALL
NO_CHARGES


@<TRIPOS>ATOM
   1 C1            -0.0164     1.3552     0.0095 C.2     
   2 C2             0.0051     0.0036    -0.1342 C.2     
   3 C3             1.2469    -0.6764    -0.1518 C.2     
   4 C4             2.4668     0.1370    -0.0106 C.ar    
   5 C5             2.3312     1.5266     0.1320 C.ar    
   6 O6             1.1034     2.0843     0.1372 O.3     
   7 C7             3.7382    -0.4527    -0.0167 C.ar    
   8 C8             4.8648     0.3397     0.1185 C.ar    
   9 C9             4.7416     1.7144     0.2605 C.ar    
  10 C10            3.4780     2.3171     0.2675 C.ar    
  11 O11            1.3043    -1.8887    -0.2786 O.2     
  12 C12            2.8163     6.0280    -0.4828 C.3     
  13 C13            3.3544     4.6351    -0.8186 C.3     
  14 C14            3.3557     3.7803     0.4181 C.2     
  15 C15            3.2518     4.2839     1.6298 C.2     
  16 C16            3.1148     5.7555     1.8958 C.3     
  17 N17            3.5175     6.5256     0.7122 N.3     
  18 C18            3.2708     7.9604     0.9081 C.3     
  19 O19            5.8538     2.4802     0.3927 O.3     
  20 O20            3.8642    -1.7965    -0.1544 O.3     
  21 C21           -1.3200     2.0479     0.0194 C.ar    
  22 C22           -1.5822     3.0647    -0.9036 C.ar    
  23 C23           -2.8041     3.7074    -0.8882 C.ar    
  24 C24           -3.7668     3.3473     0.0378 C.ar    
  25 C25           -3.5132     2.3419     0.9543 C.ar    
  26 C26           -2.2995     1.6867     0.9469 C.ar    
  27 Cl27          -0.3746     3.5183    -2.0654 Cl      
  28 H28           -0.9183    -0.5476    -0.2338 H       
  29 H29            5.8447    -0.1143     0.1138 H       
  30 H30            2.9963     6.7017    -1.3205 H       
  31 H31            1.7469     5.9684    -0.2805 H       
  32 H32            2.7215     4.1750    -1.5774 H       
  33 H33            4.3719     4.7216    -1.1998 H       
  34 H34            3.2653     3.6074     2.4716 H       
  35 H35            2.0769     5.9834     2.1388 H       
  36 H36            3.7491     6.0306     2.7385 H       
  37 H37            2.2016     8.1314     1.0336 H       
  38 H38            3.8003     8.3020     1.7974 H       
  39 H39            3.6274     8.5124     0.0384 H       
  40 H40            6.2157     2.7964    -0.4464 H       
  41 H41            3.9399    -2.0925    -1.0719 H       
  42 H42           -3.0087     4.4931    -1.6004 H       
  43 H43           -4.7207     3.8535     0.0457 H       
  44 H44           -4.2695     2.0665     1.6744 H       
  45 H45           -2.1052     0.8993     1.6602 H       
@<TRIPOS>BOND
   1    1    2 2
   2    1    6 1
   3    1   21 1
   4    2    3 1
   5    2   28 1
   6    3    4 1
   7    3   11 2
   8    4    5 ar
   9    4    7 ar
  10    5    6 1
  11    5   10 ar
  12    7    8 ar
  13    7   20 1
  14    8    9 ar
  15    8   29 1
  16    9   10 ar
  17    9   19 1
  18   10   14 1
  19   12   13 1
  20   12   17 1
  21   12   30 1
  22   12   31 1
  23   13   14 1
  24   13   32 1
  25   13   33 1
  26   14   15 2
  27   15   16 1
  28   15   34 1
  29   16   17 1
  30   16   35 1
  31   16   36 1
  32   17   18 1
  33   18   37 1
  34   18   38 1
  35   18   39 1
  36   19   40 1
  37   20   41 1
  38   21   22 ar
  39   21   26 ar
  40   22   23 ar
  41   22   27 1
  42   23   24 ar
  43   23   42 1
  44   24   25 ar
  45   24   43 1
  46   25   26 ar
  47   25   44 1
  48   26   45 1

#	End of record

