#	Name: ASD01410980
#	Creating user name:	WinNT
#	Creation time:	15. 06. 2019 19:19

#	Modifying user name:	WinNT
#	Modification time:	15. 06. 2019 19:19

#	Program:	/corina/corina34_cracker 3.40 0067  02.08.2006

@<TRIPOS>MOLECULE
ASD01410980
  59   63    0    0    0
SMALL
NO_CHARGES


@<TRIPOS>ATOM
   1 C1            -0.0225     1.8097     0.0120 C.ar    
   2 P2             0.0021    -0.0041     0.0020 P.3     
   3 N3             0.0243    -0.5590     1.5451 N.pl3   
   4 O4            -1.2061    -0.5101    -0.6869 O.2     
   5 C5             0.0452    -1.9289     1.7920 C.2     
   6 C6             0.0645    -2.4576     3.0623 C.2     
   7 S7             0.0875    -4.2132     2.9705 S.3     
   8 C8             0.0702    -4.1613     1.2136 C.2     
   9 C9             0.0426    -2.8674     0.7868 C.2     
  10 C10            0.0663    -1.7049     4.2571 C.2     
  11 O11            0.0499    -0.4885     4.2103 O.2     
  12 O12            0.0861    -2.3343     5.4514 O.3     
  13 C13            0.0787    -5.3447     0.3308 C.ar    
  14 C14            0.1016    -6.6284     0.8832 C.ar    
  15 C15            0.1090    -7.7274     0.0634 C.ar    
  16 C16            0.0936    -7.5640    -1.3246 C.ar    
  17 C17            0.0711    -6.2803    -1.8769 C.ar    
  18 C18            0.0579    -5.1814    -1.0571 C.ar    
  19 O19            1.3165    -0.5187    -0.7723 O.3     
  20 C20            1.5888    -0.2019    -2.1389 C.3     
  21 C21            1.1649     2.5170     0.0045 C.ar    
  22 C22            1.1461     3.8994     0.0121 C.ar    
  23 C23           -0.0600     4.5741     0.0268 C.ar    
  24 C24           -1.2478     3.8666     0.0335 C.ar    
  25 C25           -1.2291     2.4847     0.0214 C.ar    
  26 C26           -0.0805     6.0810     0.0362 C.3     
  27 C27            2.4800     1.7814    -0.0116 C.3     
  28 C28            0.1016    -8.7474    -2.2074 C.2     
  29 C29            0.0882    -8.7092    -3.5631 C.2     
  30 C30            0.1032   -10.1032    -4.0106 C.ar    
  31 C31            0.1250   -10.8749    -2.8343 C.ar    
  32 O32            0.1291   -10.0271    -1.7871 O.3     
  33 N33            0.0996   -10.6884    -5.2041 N.ar    
  34 C34            0.1161   -11.9987    -5.3243 C.ar    
  35 C35            0.1380   -12.8213    -4.2086 C.ar    
  36 C36            0.1453   -12.2608    -2.9429 C.ar    
  37 H37            0.0227     0.0673     2.2858 H       
  38 H38            0.0241    -2.5998    -0.2593 H       
  39 H39            0.0856    -1.7362     6.2113 H       
  40 H40            0.1139    -6.7547     1.9557 H       
  41 H41            0.1271    -8.7193     0.4902 H       
  42 H42            0.0596    -6.1540    -2.9494 H       
  43 H43            0.0360    -4.1895    -1.4839 H       
  44 H44            0.7839    -0.5828    -2.7675 H       
  45 H45            1.6589     0.8797    -2.2541 H       
  46 H46            2.5312    -0.6610    -2.4375 H       
  47 H47            2.0740     4.4521     0.0069 H       
  48 H48           -2.1903     4.3939     0.0453 H       
  49 H49           -2.1570     1.9320     0.0227 H       
  50 H50           -0.0945     6.4505    -0.9892 H       
  51 H51           -0.9707     6.4290     0.5600 H       
  52 H52            0.8090     6.4533     0.5445 H       
  53 H53            2.7875     1.6092    -1.0431 H       
  54 H54            3.2364     2.3781     0.4982 H       
  55 H55            2.3675     0.8247     0.4985 H       
  56 H56            0.0698    -7.8278    -4.1870 H       
  57 H57            0.1122   -12.4412    -6.3095 H       
  58 H58            0.1514   -13.8948    -4.3264 H       
  59 H59            0.1701   -12.8846    -2.0616 H       
@<TRIPOS>BOND
   1    1    2 1
   2    1   21 ar
   3    1   25 ar
   4    2    3 1
   5    2    4 2
   6    2   19 1
   7    3    5 1
   8    3   37 1
   9    5    6 2
  10    5    9 1
  11    6    7 1
  12    6   10 1
  13    7    8 1
  14    8    9 2
  15    8   13 1
  16    9   38 1
  17   10   11 2
  18   10   12 1
  19   12   39 1
  20   13   14 ar
  21   13   18 ar
  22   14   15 ar
  23   14   40 1
  24   15   16 ar
  25   15   41 1
  26   16   17 ar
  27   16   28 1
  28   17   18 ar
  29   17   42 1
  30   18   43 1
  31   19   20 1
  32   20   44 1
  33   20   45 1
  34   20   46 1
  35   21   22 ar
  36   21   27 1
  37   22   23 ar
  38   22   47 1
  39   23   24 ar
  40   23   26 1
  41   24   25 ar
  42   24   48 1
  43   25   49 1
  44   26   50 1
  45   26   51 1
  46   26   52 1
  47   27   53 1
  48   27   54 1
  49   27   55 1
  50   28   29 2
  51   28   32 1
  52   29   30 1
  53   29   56 1
  54   30   33 ar
  55   30   31 ar
  56   31   32 1
  57   31   36 ar
  58   33   34 ar
  59   34   35 ar
  60   34   57 1
  61   35   36 ar
  62   35   58 1
  63   36   59 1

#	End of record

