#	Name: ASD01911525
#	Creating user name:	WinNT
#	Creation time:	15. 06. 2019 19:57

#	Modifying user name:	WinNT
#	Modification time:	15. 06. 2019 19:57

#	Program:	/corina/corina34_cracker 3.40 0067  02.08.2006

@<TRIPOS>MOLECULE
ASD01911525
  38   40    0    0    0
SMALL
NO_CHARGES


@<TRIPOS>ATOM
   1 N1            -0.0162     1.3400     0.0094 N.am    
   2 C2             0.0136     0.0161    -0.2217 C.2     
   3 C3             1.4368    -0.4922    -0.1530 C.3     
   4 C4             2.2097     0.6400     0.5623 C.3     
   5 C5             1.3319     1.8707     0.2438 C.3     
   6 O6            -0.9591    -0.6709    -0.4515 O.2     
   7 C7            -1.1768     2.1103     0.0193 C.ar    
   8 C8            -2.4240     1.4887     0.0226 C.ar    
   9 N9            -1.0926     3.4349     0.0311 N.ar    
  10 N10           -3.5238     2.2147     0.0324 N.ar    
  11 C11           -3.4426     3.5457     0.0391 C.ar    
  12 C12           -2.1906     4.1668     0.0410 C.ar    
  13 C13           -4.6360     4.3372     0.0493 C.1     
  14 C14           -5.6144     4.9860     0.0576 C.1     
  15 C15           -6.7352     7.1731     0.0749 C.ar    
  16 C16           -6.8077     5.7774     0.0677 C.ar    
  17 C17           -8.0687     5.1660     0.0702 C.ar    
  18 C18           -9.1900     5.9764     0.0796 C.ar    
  19 C19           -9.0327     7.3507     0.0863 C.ar    
  20 N20           -7.8329     7.8999     0.0838 N.ar    
  21 C21            2.2756     0.3900     2.0703 C.3     
  22 C22            3.6130     0.8014    -0.0257 C.3     
  23 H23            1.4853    -1.4133     0.4278 H       
  24 H24            1.8340    -0.6509    -1.1556 H       
  25 H25            1.6995     2.3750    -0.6499 H       
  26 H26            1.3249     2.5581     1.0897 H       
  27 H27           -2.4894     0.4107     0.0167 H       
  28 H28           -2.1217     5.2446     0.0507 H       
  29 H29           -5.7708     7.6594     0.0777 H       
  30 H30           -8.1627     4.0901     0.0645 H       
  31 H31          -10.1781     5.5404     0.0814 H       
  32 H32           -9.9068     7.9850     0.0937 H       
  33 H33            2.8073    -0.5422     2.2612 H       
  34 H34            2.8020     1.2138     2.5525 H       
  35 H35            1.2646     0.3204     2.4716 H       
  36 H36            3.5376     1.0196    -1.0910 H       
  37 H37            4.1258     1.6210     0.4777 H       
  38 H38            4.1751    -0.1214     0.1173 H       
@<TRIPOS>BOND
   1    1    2 am
   2    1    5 1
   3    1    7 1
   4    2    3 1
   5    2    6 2
   6    3    4 1
   7    3   23 1
   8    3   24 1
   9    4    5 1
  10    4   21 1
  11    4   22 1
  12    5   25 1
  13    5   26 1
  14    7    8 ar
  15    7    9 ar
  16    8   10 ar
  17    8   27 1
  18    9   12 ar
  19   10   11 ar
  20   11   12 ar
  21   11   13 1
  22   12   28 1
  23   13   14 3
  24   14   16 1
  25   15   16 ar
  26   15   20 ar
  27   15   29 1
  28   16   17 ar
  29   17   18 ar
  30   17   30 1
  31   18   19 ar
  32   18   31 1
  33   19   20 ar
  34   19   32 1
  35   21   33 1
  36   21   34 1
  37   21   35 1
  38   22   36 1
  39   22   37 1
  40   22   38 1

#	End of record

