#	Name: ASD04882487
#	Creating user name:	WinNT
#	Creation time:	15. 06. 2019 20:54

#	Modifying user name:	WinNT
#	Modification time:	15. 06. 2019 20:54

#	Program:	/corina/corina34_cracker 3.40 0067  02.08.2006

@<TRIPOS>MOLECULE
ASD04882487
  75   80    0    0    0
SMALL
NO_CHARGES


@<TRIPOS>ATOM
   1 C1             0.7049     1.3005    -0.0152 C.ar    
   2 C2             0.7911    -0.0942    -0.0465 C.ar    
   3 C3            -0.3657    -0.8629    -0.1073 C.ar    
   4 C4            -1.6003    -0.2535    -0.1374 C.ar    
   5 C5            -1.6938     1.1408    -0.1063 C.ar    
   6 C6            -0.5325     1.9159    -0.0389 C.ar    
   7 N7             2.0374    -0.7146    -0.0172 N.3     
   8 C8             2.1614    -1.5924     1.1549 C.3     
   9 C9             2.2835    -1.4610    -1.2590 C.3     
  10 C10            3.6913    -2.0603    -1.2203 C.3     
  11 N11            3.8152    -2.9381    -0.0483 N.3     
  12 C12            3.5691    -2.1917     1.1935 C.3     
  13 C13           -3.0163     1.7933    -0.1391 C.2     
  14 O14           -3.0966     3.0064    -0.1120 O.2     
  15 N15           -4.1356     1.0450    -0.1990 N.am    
  16 N16            1.8714     2.0738     0.0461 N.am    
  17 C17            5.0653    -3.5603    -0.0189 C.ar    
  18 C18            6.2226    -2.7948     0.0414 C.ar    
  19 C19            7.4573    -3.4134     0.0708 C.ar    
  20 C20            7.5419    -4.7931     0.0398 C.ar    
  21 C21            6.3914    -5.5584    -0.0202 C.ar    
  22 C22            5.1538    -4.9466    -0.0441 C.ar    
  23 C23            1.8306     3.3147     0.5706 C.2     
  24 C24            3.0207     4.1699     0.5238 C.2     
  25 O25            0.8058     3.7253     1.0830 O.2     
  26 O26            4.2137     3.8396    -0.0126 O.3     
  27 C27            5.0628     4.8662     0.1257 C.2     
  28 C28            4.4244     5.8766     0.7562 C.2     
  29 C29            3.1139     5.4425     1.0102 C.2     
  30 C30           -5.3907     1.6566    -0.1190 C.ar    
  31 C31           -6.4587     1.1484    -0.8452 C.ar    
  32 C32           -7.7022     1.7577    -0.7627 C.ar    
  33 C33           -7.8749     2.8742     0.0460 C.ar    
  34 C34           -6.8098     3.3780     0.7673 C.ar    
  35 C35           -5.5713     2.7700     0.6919 C.ar    
  36 C36            3.9007    -5.7814    -0.1091 C.3     
  37 N37           -8.7813     1.2487    -1.4937 N.am    
  38 C38          -10.1050     1.8787    -1.5633 C.3     
  39 C39          -11.0565     0.7814    -2.0896 C.3     
  40 C40          -10.0830    -0.1331    -2.8687 C.3     
  41 C41           -8.7371     0.1229    -2.2268 C.2     
  42 O42           -7.7623    -0.5882    -2.3499 O.2     
  43 H43           -0.2959    -1.9403    -0.1314 H       
  44 H44           -2.4971    -0.8535    -0.1853 H       
  45 H45           -0.6015     2.9934    -0.0148 H       
  46 H46            1.9873    -1.0141     2.0623 H       
  47 H47            1.4264    -2.3945     1.0878 H       
  48 H48            1.5499    -2.2616    -1.3535 H       
  49 H49            2.1985    -0.7869    -2.1113 H       
  50 H50            3.8654    -2.6385    -2.1278 H       
  51 H51            4.4263    -1.2581    -1.1533 H       
  52 H52            4.3027    -1.3911     1.2880 H       
  53 H53            3.6542    -2.8657     2.0458 H       
  54 H54           -4.0706     0.0822    -0.2975 H       
  55 H55            2.7085     1.7162    -0.2890 H       
  56 H56            6.1573    -1.7170     0.0649 H       
  57 H57            8.3576    -2.8187     0.1177 H       
  58 H58            8.5085    -5.2742     0.0622 H       
  59 H59            6.4610    -6.6359    -0.0447 H       
  60 H60            6.0888     4.8835    -0.2110 H       
  61 H61            4.8426     6.8387     1.0128 H       
  62 H62            2.3327     6.0038     1.5012 H       
  63 H63           -6.3218     0.2806    -1.4734 H       
  64 H64           -8.8428     3.3490     0.1106 H       
  65 H65           -6.9466     4.2461     1.3949 H       
  66 H66           -4.7405     3.1663     1.2569 H       
  67 H67            3.5646    -6.0114     0.9020 H       
  68 H68            3.1221    -5.2277    -0.6337 H       
  69 H69            4.1092    -6.7088    -0.6424 H       
  70 H70          -10.4191     2.2069    -0.5726 H       
  71 H71          -10.0851     2.7229    -2.2525 H       
  72 H72          -11.5234     0.2418    -1.2655 H       
  73 H73          -11.8103     1.2043    -2.7537 H       
  74 H74          -10.3695    -1.1787    -2.7566 H       
  75 H75          -10.0581     0.1458    -3.9221 H       
@<TRIPOS>BOND
   1    1    2 ar
   2    1   16 1
   3    1    6 ar
   4    2    3 ar
   5    2    7 1
   6    3    4 ar
   7    3   43 1
   8    4    5 ar
   9    4   44 1
  10    5    6 ar
  11    5   13 1
  12    6   45 1
  13    7    8 1
  14    7    9 1
  15    8   12 1
  16    8   46 1
  17    8   47 1
  18    9   10 1
  19    9   48 1
  20    9   49 1
  21   10   11 1
  22   10   50 1
  23   10   51 1
  24   11   12 1
  25   11   17 1
  26   12   52 1
  27   12   53 1
  28   13   14 2
  29   13   15 am
  30   15   30 1
  31   15   54 1
  32   16   23 am
  33   16   55 1
  34   17   18 ar
  35   17   22 ar
  36   18   19 ar
  37   18   56 1
  38   19   20 ar
  39   19   57 1
  40   20   21 ar
  41   20   58 1
  42   21   22 ar
  43   21   59 1
  44   22   36 1
  45   23   24 1
  46   23   25 2
  47   24   26 1
  48   24   29 2
  49   26   27 1
  50   27   28 2
  51   27   60 1
  52   28   29 1
  53   28   61 1
  54   29   62 1
  55   30   31 ar
  56   30   35 ar
  57   31   32 ar
  58   31   63 1
  59   32   33 ar
  60   32   37 1
  61   33   34 ar
  62   33   64 1
  63   34   35 ar
  64   34   65 1
  65   35   66 1
  66   36   67 1
  67   36   68 1
  68   36   69 1
  69   37   38 1
  70   37   41 am
  71   38   39 1
  72   38   70 1
  73   38   71 1
  74   39   40 1
  75   39   72 1
  76   39   73 1
  77   40   41 1
  78   40   74 1
  79   40   75 1
  80   41   42 2

#	End of record

