#	Name: ASD03240814
#	Creating user name:	WinNT
#	Creation time:	15. 06. 2019 20:35

#	Modifying user name:	WinNT
#	Modification time:	15. 06. 2019 20:35

#	Program:	/corina/corina34_cracker 3.40 0067  02.08.2006

@<TRIPOS>MOLECULE
ASD03240814
  50   54    0    0    0
SMALL
NO_CHARGES


@<TRIPOS>ATOM
   1 C1            -0.0187     1.5258     0.0104 C.3     
   2 C2             0.0021    -0.0041     0.0020 C.3     
   3 O3             1.3220     2.0204     0.0003 O.3     
   4 O4             0.5895    -0.4792     1.2150 O.3     
   5 C5            -0.7475     2.0250    -1.2105 C.ar    
   6 C6            -2.0656     2.4326    -1.1072 C.ar    
   7 C7            -2.7382     2.8911    -2.2213 C.ar    
   8 C8            -2.0865     2.9431    -3.4535 C.ar    
   9 C9            -0.7575     2.5307    -3.5511 C.ar    
  10 C10           -0.0941     2.0791    -2.4287 C.ar    
  11 N11           -6.1228     3.3141    -5.9837 N.pl3   
  12 C12           -6.8033     3.7576    -7.0853 C.2     
  13 N13           -6.2015     4.4650    -8.0578 N.2     
  14 C14           -4.9306     4.7707    -8.0082 C.2     
  15 C15           -4.1387     4.3309    -6.8615 C.ar    
  16 C16           -2.7756     4.6261    -6.7522 C.ar    
  17 C17           -2.0982     4.1685    -5.6268 C.ar    
  18 C18           -2.8027     3.4337    -4.6532 C.ar    
  19 N19           -4.0939     3.1731    -4.7915 N.ar    
  20 C20           -4.7761     3.5894    -5.8442 C.ar    
  21 C21           -8.1168     3.3314    -6.9424 C.2     
  22 C22           -8.2064     2.6316    -5.7456 C.2     
  23 N23           -7.0257     2.6131    -5.1752 N.2     
  24 C24           -0.6526     4.4494    -5.4549 C.ar    
  25 C25            0.2405     4.1793    -6.4905 C.ar    
  26 C26            1.5850     4.4432    -6.3250 C.ar    
  27 C27            2.0467     4.9747    -5.1343 C.ar    
  28 C28            1.1651     5.2443    -4.1030 C.ar    
  29 C29           -0.1823     4.9899    -4.2592 C.ar    
  30 C30           -9.4555     1.9927    -5.1955 C.3     
  31 H31           -0.5289     1.8773     0.9072 H       
  32 H32           -1.0175    -0.3808    -0.0798 H       
  33 H33            0.5883    -0.3548    -0.8473 H       
  34 H34            1.8365     1.7462    -0.7712 H       
  35 H35            0.6355    -1.4430     1.2786 H       
  36 H36           -2.5692     2.3916    -0.1527 H       
  37 H37           -3.7672     3.2087    -2.1395 H       
  38 H38           -0.2478     2.5682    -4.5025 H       
  39 H39            0.9361     1.7634    -2.5022 H       
  40 H40           -4.4729     5.3399    -8.8038 H       
  41 H41           -2.2652     5.1919    -7.5176 H       
  42 H42           -8.9242     3.5118    -7.6367 H       
  43 H43           -0.1188     3.7640    -7.4205 H       
  44 H44            2.2779     4.2341    -7.1265 H       
  45 H45            3.0997     5.1796    -5.0092 H       
  46 H46            1.5313     5.6586    -3.1752 H       
  47 H47           -0.8703     5.2049    -3.4550 H       
  48 H48           -9.5277     0.9665    -5.5558 H       
  49 H49           -9.4145     1.9934    -4.1063 H       
  50 H50          -10.3279     2.5562    -5.5266 H       
@<TRIPOS>BOND
   1    1    2 1
   2    1    3 1
   3    1    5 1
   4    1   31 1
   5    2    4 1
   6    2   32 1
   7    2   33 1
   8    3   34 1
   9    4   35 1
  10    5    6 ar
  11    5   10 ar
  12    6    7 ar
  13    6   36 1
  14    7    8 ar
  15    7   37 1
  16    8    9 ar
  17    8   18 1
  18    9   10 ar
  19    9   38 1
  20   10   39 1
  21   11   12 1
  22   11   20 1
  23   11   23 1
  24   12   13 1
  25   12   21 2
  26   13   14 2
  27   14   15 1
  28   14   40 1
  29   15   16 ar
  30   15   20 ar
  31   16   17 ar
  32   16   41 1
  33   17   18 ar
  34   17   24 1
  35   18   19 ar
  36   19   20 ar
  37   21   22 1
  38   21   42 1
  39   22   23 2
  40   22   30 1
  41   24   25 ar
  42   24   29 ar
  43   25   26 ar
  44   25   43 1
  45   26   27 ar
  46   26   44 1
  47   27   28 ar
  48   27   45 1
  49   28   29 ar
  50   28   46 1
  51   29   47 1
  52   30   48 1
  53   30   49 1
  54   30   50 1

#	End of record

