#	Name: ASD01916445
#	Creating user name:	WinNT
#	Creation time:	15. 06. 2019 20:07

#	Modifying user name:	WinNT
#	Modification time:	15. 06. 2019 20:07

#	Program:	/corina/corina34_cracker 3.40 0067  02.08.2006

@<TRIPOS>MOLECULE
ASD01916445
  43   46    0    0    0
SMALL
NO_CHARGES


@<TRIPOS>ATOM
   1 C1            -0.0171     1.4078     0.0098 C.ar    
   2 C2             0.0021    -0.0041     0.0020 C.ar    
   3 N3            -1.1277    -0.7006     0.0070 N.ar    
   4 C4            -2.2988    -0.1103     0.0209 C.ar    
   5 C5            -2.4082     1.2907     0.0307 C.ar    
   6 C6            -1.2492     2.0685     0.0193 C.ar    
   7 N7             1.1546     2.0830     0.0022 N.2     
   8 C8             2.3123     1.4776    -0.0109 C.2     
   9 N9             2.4249     0.1224    -0.0137 N.am    
  10 C10            1.3176    -0.6628    -0.0106 C.2     
  11 C11            3.6979     2.1026    -0.0272 C.3     
  12 C12            4.6313     0.9555    -0.4703 C.3     
  13 C13            3.8394    -0.2890    -0.0192 C.3     
  14 C14           -3.6970     1.9147     0.0466 C.1     
  15 C15           -4.7536     2.4263     0.0596 C.1     
  16 C16           -6.0423     3.0503     0.0755 C.ar    
  17 N17           -6.1334     4.3767     0.0847 N.ar    
  18 C18           -7.2998     4.9878     0.0993 C.ar    
  19 C19           -8.4803     4.2667     0.1062 C.ar    
  20 C20           -8.4324     2.8792     0.0970 C.ar    
  21 C21           -7.1953     2.2608     0.0754 C.ar    
  22 O22            1.4103    -1.8765    -0.0168 O.2     
  23 C23            4.8231     0.9616    -1.9882 C.3     
  24 C24            5.9787     1.0374     0.2498 C.3     
  25 C25            6.6678     2.3563    -0.1057 C.3     
  26 H26           -3.1956    -0.7121     0.0245 H       
  27 H27           -1.3025     3.1471     0.0264 H       
  28 H28            3.7370     2.9235    -0.7432 H       
  29 H29            3.9699     2.4516     0.9690 H       
  30 H30            4.1483    -0.5897     0.9819 H       
  31 H31            3.9910    -1.1075    -0.7229 H       
  32 H32           -7.3353     6.0672     0.1064 H       
  33 H33           -9.4311     4.7788     0.1189 H       
  34 H34           -9.3411     2.2956     0.1025 H       
  35 H35           -7.1215     1.1834     0.0678 H       
  36 H36            5.2880     1.8995    -2.2919 H       
  37 H37            5.4639     0.1283    -2.2768 H       
  38 H38            3.8542     0.8611    -2.4773 H       
  39 H39            5.8185     0.9900     1.3270 H       
  40 H40            6.6080     0.2034    -0.0609 H       
  41 H41            6.8280     2.4037    -1.1829 H       
  42 H42            6.0385     3.1903     0.2050 H       
  43 H43            7.6277     2.4146     0.4073 H       
@<TRIPOS>BOND
   1    1    2 ar
   2    1    7 1
   3    1    6 ar
   4    2    3 ar
   5    2   10 1
   6    3    4 ar
   7    4    5 ar
   8    4   26 1
   9    5    6 ar
  10    5   14 1
  11    6   27 1
  12    7    8 2
  13    8    9 1
  14    8   11 1
  15    9   10 am
  16    9   13 1
  17   10   22 2
  18   11   12 1
  19   11   28 1
  20   11   29 1
  21   12   13 1
  22   12   23 1
  23   12   24 1
  24   13   30 1
  25   13   31 1
  26   14   15 3
  27   15   16 1
  28   16   17 ar
  29   16   21 ar
  30   17   18 ar
  31   18   19 ar
  32   18   32 1
  33   19   20 ar
  34   19   33 1
  35   20   21 ar
  36   20   34 1
  37   21   35 1
  38   23   36 1
  39   23   37 1
  40   23   38 1
  41   24   25 1
  42   24   39 1
  43   24   40 1
  44   25   41 1
  45   25   42 1
  46   25   43 1

#	End of record

