#	Name: ASD05940034
#	Creating user name:	WinNT
#	Creation time:	15. 06. 2019 21:04

#	Modifying user name:	WinNT
#	Modification time:	15. 06. 2019 21:04

#	Program:	/corina/corina34_cracker 3.40 0067  02.08.2006

@<TRIPOS>MOLECULE
ASD05940034
  57   60    0    0    0
SMALL
NO_CHARGES


@<TRIPOS>ATOM
   1 N1            -0.0159     1.3192     0.0093 N.ar    
   2 C2             0.0021    -0.0041     0.0020 C.ar    
   3 N3             1.1312    -0.6916    -0.0120 N.ar    
   4 C4             2.3077    -0.0674    -0.0199 C.ar    
   5 C5             2.3332     1.3267    -0.0131 C.ar    
   6 C6             1.1160     2.0179     0.0022 C.ar    
   7 N7             3.4850    -0.7937    -0.0341 N.am    
   8 C8             4.6734    -0.1557    -0.0415 C.2     
   9 C9             4.7050     1.3351    -0.0348 C.2     
  10 N10            3.5408     2.0187    -0.0214 N.am    
  11 N11            1.0907     3.4041     0.0099 N.pl3   
  12 O12           -1.1746    -0.6758     0.0096 O.3     
  13 C13            3.4409    -2.2580    -0.0405 C.3     
  14 O14            5.7657     1.9276    -0.0414 O.2     
  15 C15           -2.3692     0.1082     0.0252 C.3     
  16 C16           -3.5870    -0.8179     0.0319 C.3     
  17 O17           -3.6099    -1.5660     1.2492 O.3     
  18 C18            3.4127    -2.7534    -1.4635 C.ar    
  19 C19            4.5966    -3.0167    -2.1274 C.ar    
  20 C20            2.2033    -2.9500    -2.1030 C.ar    
  21 C21            2.1775    -3.4045    -3.4084 C.ar    
  22 C22            3.3611    -3.6619    -4.0742 C.ar    
  23 C23            4.5707    -3.4710    -3.4324 C.ar    
  24 N24            0.4577    -2.3823    -4.7876 N.3     
  25 C25           -0.6983    -2.6173    -5.6722 C.3     
  26 C26            0.0976    -1.3319    -3.8115 C.3     
  27 C27           -1.0344    -0.5264    -4.4966 C.3     
  28 C28           -1.8148    -1.6469    -5.2330 C.3     
  29 C29           -4.7140    -2.4668     1.3572 C.3     
  30 O30            5.7090    -0.7902    -0.0532 O.2     
  31 C31            0.8588    -3.6199    -4.1054 C.3     
  32 H32            3.5460     2.9887    -0.0172 H       
  33 H33            1.9218     3.9043     0.0047 H       
  34 H34            0.2420     3.8736     0.0205 H       
  35 H35            4.3242    -2.6503     0.4634 H       
  36 H36            2.5451    -2.5968     0.4799 H       
  37 H37           -2.3825     0.7324     0.9188 H       
  38 H38           -2.3994     0.7419    -0.8611 H       
  39 H39           -4.4967    -0.2225    -0.0458 H       
  40 H40           -3.5275    -1.5025    -0.8142 H       
  41 H41            5.5415    -2.8669    -1.6263 H       
  42 H42            1.2784    -2.7489    -1.5828 H       
  43 H43            3.3409    -4.0173    -5.0938 H       
  44 H44            5.4956    -3.6721    -3.9526 H       
  45 H45           -0.4198    -2.4183    -6.7071 H       
  46 H46           -1.0404    -3.6471    -5.5695 H       
  47 H47           -0.2630    -1.7814    -2.8862 H       
  48 H48            0.9547    -0.6884    -3.6130 H       
  49 H49           -1.6648    -0.0326    -3.7572 H       
  50 H50           -0.6267     0.1954    -5.2044 H       
  51 H51           -2.3395    -1.2453    -6.0999 H       
  52 H52           -2.5106    -2.1414    -4.5551 H       
  53 H53           -5.6470    -1.9056     1.3070 H       
  54 H54           -4.6778    -3.1856     0.5386 H       
  55 H55           -4.6592    -2.9963     2.3083 H       
  56 H56            0.9611    -4.4213    -4.8370 H       
  57 H57            0.1003    -3.8924    -3.3716 H       
@<TRIPOS>BOND
   1    1    2 ar
   2    1    6 ar
   3    2    3 ar
   4    2   12 1
   5    3    4 ar
   6    4    5 ar
   7    4    7 1
   8    5    6 ar
   9    5   10 1
  10    6   11 1
  11    7    8 am
  12    7   13 1
  13    8    9 1
  14    8   30 2
  15    9   10 am
  16    9   14 2
  17   10   32 1
  18   11   33 1
  19   11   34 1
  20   12   15 1
  21   13   18 1
  22   13   35 1
  23   13   36 1
  24   15   16 1
  25   15   37 1
  26   15   38 1
  27   16   17 1
  28   16   39 1
  29   16   40 1
  30   17   29 1
  31   18   19 ar
  32   18   20 ar
  33   19   23 ar
  34   19   41 1
  35   20   21 ar
  36   20   42 1
  37   21   22 ar
  38   21   31 1
  39   22   23 ar
  40   22   43 1
  41   23   44 1
  42   24   25 1
  43   24   26 1
  44   24   31 1
  45   25   28 1
  46   25   45 1
  47   25   46 1
  48   26   27 1
  49   26   47 1
  50   26   48 1
  51   27   28 1
  52   27   49 1
  53   27   50 1
  54   28   51 1
  55   28   52 1
  56   29   53 1
  57   29   54 1
  58   29   55 1
  59   31   56 1
  60   31   57 1

#	End of record

