#	Name: ASD01940689
#	Creating user name:	WinNT
#	Creation time:	15. 06. 2019 20:13

#	Modifying user name:	WinNT
#	Modification time:	15. 06. 2019 20:13

#	Program:	/corina/corina34_cracker 3.40 0067  02.08.2006

@<TRIPOS>MOLECULE
ASD01940689
  39   41    0    0    0
SMALL
NO_CHARGES


@<TRIPOS>ATOM
   1 C1             0.4066     0.3832    -0.9567 C.ar    
   2 C2             0.0839    -0.0877     0.3027 C.ar    
   3 C3             0.8295     0.2999     1.4029 C.ar    
   4 C4             1.9028     1.1624     1.2469 C.ar    
   5 C5             2.2316     1.6385    -0.0154 C.ar    
   6 C6             1.4795     1.2463    -1.1216 C.ar    
   7 N7             1.8071     1.7233    -2.3979 N.am    
   8 S8             0.6085     2.0447    -3.4945 S.o2    
   9 C9            -0.3784     3.3526    -2.7160 C.3     
  10 O10            1.2983     2.5492    -4.6298 O.2     
  11 O11           -0.1343     0.8354    -3.5662 O.2     
  12 F12            0.5098    -0.1632     2.6311 F       
  13 F13            2.6285     1.5401     2.3220 F       
  14 N14            3.3164     2.5114    -0.1768 N.pl3   
  15 C15            4.5396     2.0264    -0.6482 C.ar    
  16 C16            5.6226     2.8870    -0.7892 C.ar    
  17 C17            4.6775     0.6829    -0.9712 C.ar    
  18 C18            5.8878     0.2062    -1.4364 C.ar    
  19 C19            6.9622     1.0654    -1.5809 C.ar    
  20 C20            6.8303     2.4040    -1.2551 C.ar    
  21 Cl21           5.4573     4.5663    -0.3812 Cl      
  22 Br22           8.6169     0.4082    -2.2181 Br      
  23 C23           -1.6370     3.7322    -3.5140 C.3     
  24 C24           -2.3678     3.8287    -2.1644 C.3     
  25 C25           -1.3249     2.8393    -1.6181 C.3     
  26 H26           -0.1745     0.0750    -1.8132 H       
  27 H27           -0.7523    -0.7595     0.4285 H       
  28 H28            2.7358     1.8652    -2.6390 H       
  29 H29            0.2209     4.2107    -2.4117 H       
  30 H30            3.2182     3.4520     0.0387 H       
  31 H31            3.8394     0.0111    -0.8584 H       
  32 H32            5.9953    -0.8387    -1.6873 H       
  33 H33            7.6710     3.0724    -1.3689 H       
  34 H34           -1.5529     4.6864    -4.0342 H       
  35 H35           -2.0063     2.9310    -4.1542 H       
  36 H36           -2.3132     4.8170    -1.7079 H       
  37 H37           -3.3809     3.4271    -2.1867 H       
  38 H38           -1.6089     1.7941    -1.7400 H       
  39 H39           -0.9889     3.0727    -0.6078 H       
@<TRIPOS>BOND
   1    1    2 ar
   2    1    6 ar
   3    1   26 1
   4    2    3 ar
   5    2   27 1
   6    3    4 ar
   7    3   12 1
   8    4    5 ar
   9    4   13 1
  10    5    6 ar
  11    5   14 1
  12    6    7 1
  13    7    8 am
  14    7   28 1
  15    8    9 1
  16    8   10 2
  17    8   11 2
  18    9   23 1
  19    9   25 1
  20    9   29 1
  21   14   15 1
  22   14   30 1
  23   15   16 ar
  24   15   17 ar
  25   16   21 1
  26   16   20 ar
  27   17   18 ar
  28   17   31 1
  29   18   19 ar
  30   18   32 1
  31   19   20 ar
  32   19   22 1
  33   20   33 1
  34   23   24 1
  35   23   34 1
  36   23   35 1
  37   24   25 1
  38   24   36 1
  39   24   37 1
  40   25   38 1
  41   25   39 1

#	End of record

