#	Name: ASD01814381
#	Creating user name:	WinNT
#	Creation time:	15. 06. 2019 19:32

#	Modifying user name:	WinNT
#	Modification time:	15. 06. 2019 19:32

#	Program:	/corina/corina34_cracker 3.40 0067  02.08.2006

@<TRIPOS>MOLECULE
ASD01814381
  49   54    0    0    0
SMALL
NO_CHARGES


@<TRIPOS>ATOM
   1 C1            -0.0167     1.3819     0.0096 C.ar    
   2 C2             0.0021    -0.0041     0.0020 C.ar    
   3 C3             1.1970    -0.6935    -0.0127 C.ar    
   4 C4             2.3990     0.0035    -0.0204 C.ar    
   5 C5             2.3751     1.4118    -0.0131 C.ar    
   6 C6             1.1661     2.0940     0.0022 C.ar    
   7 N7             3.6102    -0.6577    -0.0347 N.pl3   
   8 N8             4.7455    -0.0610    -0.0419 N.2     
   9 C9             4.8827     1.2395    -0.0366 C.2     
  10 C10            3.6768     2.1037    -0.0219 C.2     
  11 C11            6.0122     2.1721    -0.0422 C.2     
  12 N12            5.4770     3.4118    -0.0312 N.am    
  13 N13            4.0818     3.3389    -0.0193 N.2     
  14 C14            6.2138     4.5988    -0.0316 C.ar    
  15 C15            6.5807     5.2129    -1.2289 C.ar    
  16 C16            7.3090     6.3853    -1.1858 C.ar    
  17 N17            7.6574     6.9234    -0.0324 N.ar    
  18 C18            7.3297     6.3733     1.1214 C.ar    
  19 C19            6.5968     5.2038     1.1653 C.ar    
  20 C20            3.5986    -2.1226    -0.0414 C.3     
  21 C21            3.5815    -2.6183    -1.4645 C.ar    
  22 C22            4.7720    -2.8547    -2.1271 C.ar    
  23 C23            4.7595    -3.3085    -3.4315 C.ar    
  24 C24            3.5502    -3.5278    -4.0773 C.ar    
  25 C25            2.3566    -3.2900    -3.4092 C.ar    
  26 C26            2.3754    -2.8412    -2.1031 C.ar    
  27 N27            3.5343    -3.9880    -5.4013 N.pl3   
  28 C28            2.4322    -4.2411    -6.1428 C.2     
  29 C29            2.8434    -4.6660    -7.3599 C.2     
  30 C30            4.2426    -4.6732    -7.3636 C.2     
  31 N31            4.6575    -4.2614    -6.1926 N.2     
  32 Cl32           6.1710     4.4885     2.6887 Cl      
  33 O33            7.1977     1.8863    -0.0540 O.2     
  34 Cl34           6.1286     4.5130    -2.7518 Cl      
  35 H35           -0.9605     1.9069     0.0170 H       
  36 H36           -0.9294    -0.5505     0.0080 H       
  37 H37            1.1981    -1.7735    -0.0178 H       
  38 H38            1.1510     3.1739     0.0081 H       
  39 H39            7.5975     6.8678    -2.1080 H       
  40 H40            7.6347     6.8462     2.0432 H       
  41 H41            4.4903    -2.4953     0.4625 H       
  42 H42            2.7105    -2.4813     0.4789 H       
  43 H43            5.7124    -2.6839    -1.6243 H       
  44 H44            5.6896    -3.4923    -3.9488 H       
  45 H45            1.4143    -3.4594    -3.9090 H       
  46 H46            1.4473    -2.6560    -1.5829 H       
  47 H47            1.4077    -4.1255    -5.8211 H       
  48 H48            2.2044    -4.9494    -8.1832 H       
  49 H49            4.8719    -4.9641    -8.1917 H       
@<TRIPOS>BOND
   1    1    2 ar
   2    1    6 ar
   3    1   35 1
   4    2    3 ar
   5    2   36 1
   6    3    4 ar
   7    3   37 1
   8    4    5 ar
   9    4    7 1
  10    5    6 ar
  11    5   10 1
  12    6   38 1
  13    7    8 1
  14    7   20 1
  15    8    9 2
  16    9   10 1
  17    9   11 1
  18   10   13 2
  19   11   12 am
  20   11   33 2
  21   12   13 1
  22   12   14 1
  23   14   15 ar
  24   14   19 ar
  25   15   16 ar
  26   15   34 1
  27   16   17 ar
  28   16   39 1
  29   17   18 ar
  30   18   19 ar
  31   18   40 1
  32   19   32 1
  33   20   21 1
  34   20   41 1
  35   20   42 1
  36   21   22 ar
  37   21   26 ar
  38   22   23 ar
  39   22   43 1
  40   23   24 ar
  41   23   44 1
  42   24   25 ar
  43   24   27 1
  44   25   26 ar
  45   25   45 1
  46   26   46 1
  47   27   28 1
  48   27   31 1
  49   28   29 2
  50   28   47 1
  51   29   30 1
  52   29   48 1
  53   30   31 2
  54   30   49 1

#	End of record

