#	Name: ASD04840075
#	Creating user name:	WinNT
#	Creation time:	15. 06. 2019 20:52

#	Modifying user name:	WinNT
#	Modification time:	15. 06. 2019 20:52

#	Program:	/corina/corina34_cracker 3.40 0067  02.08.2006

@<TRIPOS>MOLECULE
ASD04840075
  35   38    0    0    0
SMALL
NO_CHARGES


@<TRIPOS>ATOM
   1 C1            -0.0169     1.3972     0.0097 C.ar    
   2 C2             0.0021    -0.0041     0.0020 C.ar    
   3 C3             1.1949    -0.6627    -0.0129 C.ar    
   4 C4             2.3990     0.0370    -0.0201 C.ar    
   5 C5             2.4179     1.3984    -0.0129 C.ar    
   6 C6             1.2064     2.1106     0.0019 C.ar    
   7 C7             1.1887     3.5164     0.0084 C.ar    
   8 C8             0.0016     4.1844     0.0223 C.ar    
   9 C9            -1.2086     3.5005     0.0303 C.ar    
  10 C10           -1.2378     2.1158     0.0194 C.ar    
  11 C11           -2.5288     1.3956     0.0221 C.ar    
  12 C12           -2.8942     0.5929     1.1253 C.ar    
  13 C13           -4.1272    -0.0865     1.1121 C.ar    
  14 C14           -4.9713     0.0416     0.0127 C.ar    
  15 C15           -4.6030     0.8284    -1.0579 C.ar    
  16 C16           -3.3953     1.5070    -1.0578 C.ar    
  17 C17           -2.2616     0.2809     2.3480 C.2     
  18 C18           -3.0849    -0.5533     3.0401 C.2     
  19 N19           -4.2251    -0.7829     2.2940 N.pl3   
  20 C20           -2.8064    -1.1181     4.3664 C.2     
  21 O21           -1.7667    -0.8482     4.9360 O.2     
  22 O22           -3.7037    -1.9364     4.9528 O.3     
  23 H23           -0.9243    -0.5593     0.0082 H       
  24 H24            1.2067    -1.7426    -0.0188 H       
  25 H25            3.3313    -0.5082    -0.0311 H       
  26 H26            3.3590     1.9283    -0.0183 H       
  27 H27            2.1175     4.0674     0.0028 H       
  28 H28            0.0007     5.2644     0.0276 H       
  29 H29           -2.1356     4.0547     0.0417 H       
  30 H30           -5.9182    -0.4777    -0.0020 H       
  31 H31           -5.2658     0.9196    -1.9057 H       
  32 H32           -3.1247     2.1228    -1.9027 H       
  33 H33           -1.2972     0.6399     2.6758 H       
  34 H34           -4.9712    -1.3428     2.5599 H       
  35 H35           -3.4761    -2.2836     5.8262 H       
@<TRIPOS>BOND
   1    1    2 ar
   2    1    6 ar
   3    1   10 ar
   4    2    3 ar
   5    2   23 1
   6    3    4 ar
   7    3   24 1
   8    4    5 ar
   9    4   25 1
  10    5    6 ar
  11    5   26 1
  12    6    7 ar
  13    7    8 ar
  14    7   27 1
  15    8    9 ar
  16    8   28 1
  17    9   10 ar
  18    9   29 1
  19   10   11 1
  20   11   12 ar
  21   11   16 ar
  22   12   17 1
  23   12   13 ar
  24   13   14 ar
  25   13   19 1
  26   14   15 ar
  27   14   30 1
  28   15   16 ar
  29   15   31 1
  30   16   32 1
  31   17   18 2
  32   17   33 1
  33   18   19 1
  34   18   20 1
  35   19   34 1
  36   20   21 2
  37   20   22 1
  38   22   35 1

#	End of record

