#	Name: ASD03430643
#	Creating user name:	WinNT
#	Creation time:	15. 06. 2019 20:41

#	Modifying user name:	WinNT
#	Modification time:	15. 06. 2019 20:41

#	Program:	/corina/corina34_cracker 3.40 0067  02.08.2006

@<TRIPOS>MOLECULE
ASD03430643
  58   63    0    0    0
SMALL
NO_CHARGES


@<TRIPOS>ATOM
   1 N1            -0.0157     1.4932     0.4902 N.am    
   2 C2             0.0409     0.2263     0.9344 C.2     
   3 C3             1.4805    -0.0488     1.3139 C.3     
   4 C4             2.1944     1.2487     1.0120 C.ar    
   5 C5             3.5068     1.6461     1.1356 C.ar    
   6 C6             3.8770     2.9284     0.7700 C.ar    
   7 C7             2.9261     3.8060     0.2815 C.ar    
   8 C8             1.6106     3.4104     0.1566 C.ar    
   9 C9             1.2302     2.1206     0.5227 C.ar    
  10 O10           -0.8868    -0.5506     1.0164 O.2     
  11 O11            1.8782    -1.3182     6.7965 O.3     
  12 C12            1.7764    -0.2395     7.7324 C.3     
  13 C13            0.5809     0.6345     7.3298 C.3     
  14 O14            0.8124     1.1273     6.0055 O.3     
  15 C15            1.2440     0.2230     5.0829 C.ar    
  16 C16            1.7781    -0.9960     5.4778 C.ar    
  17 C17            1.1475     0.5296     3.7296 C.ar    
  18 C18            1.5859    -0.3806     2.7801 C.ar    
  19 C19            2.1190    -1.5923     3.1773 C.ar    
  20 C20            2.2157    -1.9011     4.5209 C.ar    
  21 O21            0.6224     1.7214     3.3379 O.3     
  22 O22            2.0136    -1.1102     0.5194 O.3     
  23 C23           -1.2434     2.1395     0.0197 C.3     
  24 C24           -0.9991     2.7578    -1.3327 C.ar    
  25 C25           -1.5150     4.0065    -1.6251 C.ar    
  26 C26           -1.2910     4.5737    -2.8657 C.ar    
  27 C27           -0.5506     3.8924    -3.8136 C.ar    
  28 C28           -0.0338     2.6442    -3.5208 C.ar    
  29 C29           -0.2543     2.0788    -2.2788 C.ar    
  30 C30           -2.3417     1.1132    -0.0882 C.ar    
  31 C31           -3.4804     1.2356     0.6859 C.ar    
  32 C32           -4.4878     0.2942     0.5870 C.ar    
  33 C33           -4.3567    -0.7693    -0.2864 C.ar    
  34 C34           -3.2184    -0.8911    -1.0611 C.ar    
  35 C35           -2.2129     0.0526    -0.9654 C.ar    
  36 H36            4.2463     0.9580     1.5179 H       
  37 H37            4.9056     3.2432     0.8662 H       
  38 H38            3.2152     4.8068    -0.0035 H       
  39 H39            0.8740     4.1015    -0.2257 H       
  40 H40            1.6202    -0.6366     8.7354 H       
  41 H41            2.6902     0.3543     7.7097 H       
  42 H42           -0.3320     0.0391     7.3462 H       
  43 H43            0.4873     1.4711     8.0222 H       
  44 H44            2.4605    -2.2996     2.4360 H       
  45 H45            2.6329    -2.8490     4.8270 H       
  46 H46            1.2756     2.4289     3.2494 H       
  47 H47            1.5527    -1.9532     0.6290 H       
  48 H48           -1.5392     2.9153     0.7259 H       
  49 H49           -2.0935     4.5388    -0.8845 H       
  50 H50           -1.6947     5.5490    -3.0944 H       
  51 H51           -0.3761     4.3353    -4.7831 H       
  52 H52            0.5443     2.1118    -4.2616 H       
  53 H53            0.1525     1.1052    -2.0487 H       
  54 H54           -3.5828     2.0664     1.3683 H       
  55 H55           -5.3772     0.3894     1.1923 H       
  56 H56           -5.1435    -1.5051    -0.3632 H       
  57 H57           -3.1158    -1.7221    -1.7432 H       
  58 H58           -1.3252    -0.0405    -1.5733 H       
@<TRIPOS>BOND
   1    1    2 am
   2    1    9 1
   3    1   23 1
   4    2    3 1
   5    2   10 2
   6    3    4 1
   7    3   18 1
   8    3   22 1
   9    4    5 ar
  10    4    9 ar
  11    5    6 ar
  12    5   36 1
  13    6    7 ar
  14    6   37 1
  15    7    8 ar
  16    7   38 1
  17    8    9 ar
  18    8   39 1
  19   11   12 1
  20   11   16 1
  21   12   13 1
  22   12   40 1
  23   12   41 1
  24   13   14 1
  25   13   42 1
  26   13   43 1
  27   14   15 1
  28   15   16 ar
  29   15   17 ar
  30   16   20 ar
  31   17   18 ar
  32   17   21 1
  33   18   19 ar
  34   19   20 ar
  35   19   44 1
  36   20   45 1
  37   21   46 1
  38   22   47 1
  39   23   24 1
  40   23   30 1
  41   23   48 1
  42   24   25 ar
  43   24   29 ar
  44   25   26 ar
  45   25   49 1
  46   26   27 ar
  47   26   50 1
  48   27   28 ar
  49   27   51 1
  50   28   29 ar
  51   28   52 1
  52   29   53 1
  53   30   31 ar
  54   30   35 ar
  55   31   32 ar
  56   31   54 1
  57   32   33 ar
  58   32   55 1
  59   33   34 ar
  60   33   56 1
  61   34   35 ar
  62   34   57 1
  63   35   58 1

#	End of record

