#	Name: ASD01884191
#	Creating user name:	WinNT
#	Creation time:	15. 06. 2019 19:47

#	Modifying user name:	WinNT
#	Modification time:	15. 06. 2019 19:47

#	Program:	/corina/corina34_cracker 3.40 0067  02.08.2006

@<TRIPOS>MOLECULE
ASD01884191
  50   54    0    0    0
SMALL
NO_CHARGES


@<TRIPOS>ATOM
   1 S1             0.0198     1.7339    -0.5277 S.3     
   2 C2             0.0255    -0.0227    -0.2997 C.2     
   3 N3             1.2933    -0.3599    -0.0449 N.am    
   4 C4             2.2519     0.6369    -0.0140 C.ar    
   5 C5             1.7590     1.9200    -0.2620 C.ar    
   6 C6             2.5865     3.0257    -0.2671 C.ar    
   7 C7             3.9489     2.8725    -0.0202 C.ar    
   8 C8             4.4559     1.5969     0.2291 C.ar    
   9 C9             3.6278     0.5019     0.2322 C.ar    
  10 O10           -0.9320    -0.7715    -0.3625 O.2     
  11 C11            4.8497     4.0511    -0.0230 C.ar    
  12 C12            6.2119     3.8892     0.2249 C.ar    
  13 C13            7.0473     4.9859     0.2214 C.ar    
  14 C14            6.5322     6.2524    -0.0291 C.ar    
  15 C15            5.1742     6.4162    -0.2765 C.ar    
  16 C16            4.3361     5.3215    -0.2792 C.ar    
  17 S17            9.7408     9.2701     0.5097 S.o2    
  18 C18            9.4224     8.3128    -1.0029 C.3     
  19 C19            8.6779     7.0290    -0.6233 C.3     
  20 N20            7.3800     7.3617    -0.0317 N.3     
  21 C21            7.5066     7.9287     1.3128 C.3     
  22 C22            8.0725     9.3496     1.2283 C.3     
  23 O23           10.5710     8.5013     1.3692 O.2     
  24 O24           10.1416    10.5829     0.1421 O.2     
  25 C25            1.6604    -1.7573     0.1974 C.3     
  26 C26            2.0238    -2.4266    -1.1296 C.3     
  27 C27            2.5504    -3.8621    -1.0759 C.3     
  28 C28            1.1411    -3.5833    -1.6025 C.3     
  29 F29            3.5278    -4.2269    -2.0080 F       
  30 F30            2.6626    -4.4623     0.1828 F       
  31 H31            2.1785     4.0065    -0.4622 H       
  32 H32            5.5110     1.4694     0.4214 H       
  33 H33            4.0402    -0.4770     0.4275 H       
  34 H34            6.6124     2.9053     0.4199 H       
  35 H35            8.1027     4.8609     0.4138 H       
  36 H36            4.7760     7.4011    -0.4709 H       
  37 H37            3.2818     5.4486    -0.4759 H       
  38 H38            8.8108     8.9016    -1.6865 H       
  39 H39           10.3685     8.0591    -1.4810 H       
  40 H40            8.5242     6.4222    -1.5157 H       
  41 H41            9.2709     6.4663     0.0978 H       
  42 H42            6.5258     7.9573     1.7875 H       
  43 H43            8.1767     7.3069     1.9064 H       
  44 H44            8.1249     9.7825     2.2273 H       
  45 H45            7.4304     9.9619     0.5951 H       
  46 H46            2.5168    -1.7965     0.8706 H       
  47 H47            0.8183    -2.2810     0.6498 H       
  48 H48            2.4393    -1.7663    -1.8909 H       
  49 H49            0.3015    -3.8676    -0.9682 H       
  50 H50            0.9755    -3.6842    -2.6751 H       
@<TRIPOS>BOND
   1    1    2 1
   2    1    5 1
   3    2    3 am
   4    2   10 2
   5    3    4 1
   6    3   25 1
   7    4    5 ar
   8    4    9 ar
   9    5    6 ar
  10    6    7 ar
  11    6   31 1
  12    7    8 ar
  13    7   11 1
  14    8    9 ar
  15    8   32 1
  16    9   33 1
  17   11   12 ar
  18   11   16 ar
  19   12   13 ar
  20   12   34 1
  21   13   14 ar
  22   13   35 1
  23   14   15 ar
  24   14   20 1
  25   15   16 ar
  26   15   36 1
  27   16   37 1
  28   17   18 1
  29   17   22 1
  30   17   23 2
  31   17   24 2
  32   18   19 1
  33   18   38 1
  34   18   39 1
  35   19   20 1
  36   19   40 1
  37   19   41 1
  38   20   21 1
  39   21   22 1
  40   21   42 1
  41   21   43 1
  42   22   44 1
  43   22   45 1
  44   25   26 1
  45   25   46 1
  46   25   47 1
  47   26   27 1
  48   26   28 1
  49   26   48 1
  50   27   28 1
  51   27   29 1
  52   27   30 1
  53   28   49 1
  54   28   50 1

#	End of record

