#	Name: ASD03910052
#	Creating user name:	WinNT
#	Creation time:	15. 06. 2019 20:47

#	Modifying user name:	WinNT
#	Modification time:	15. 06. 2019 20:47

#	Program:	/corina/corina34_cracker 3.40 0067  02.08.2006

@<TRIPOS>MOLECULE
ASD03910052
  71   73    0    0    0
SMALL
NO_CHARGES


@<TRIPOS>ATOM
   1 C1             0.6502    15.3706    -6.6084 C.ar    
   2 C2             1.8038    16.0689    -6.9148 C.ar    
   3 C3             3.0404    15.5470    -6.5824 C.ar    
   4 C4             3.1270    14.3257    -5.9434 C.ar    
   5 C5             1.9704    13.6219    -5.6342 C.ar    
   6 C6             0.7298    14.1516    -5.9639 C.ar    
   7 N7             2.0548    12.3843    -4.9868 N.am    
   8 C8             1.0981    12.0147    -4.1123 C.2     
   9 O9             0.2190    12.7937    -3.8101 O.2     
  10 C10           -0.0484    10.4750    -2.5725 C.ar    
  11 C11           -1.2550     9.9964    -3.0489 C.ar    
  12 C12           -2.3266     9.8448    -2.1904 C.ar    
  13 C13           -2.1915    10.1733    -0.8494 C.ar    
  14 C14           -0.9798    10.6533    -0.3739 C.ar    
  15 C15            0.0889    10.8031    -1.2364 C.ar    
  16 O16           -3.2444    10.0255    -0.0029 O.3     
  17 C17           -3.0256    10.3594     1.3692 C.3     
  18 C18           -1.9584     9.4696     1.9527 C.2     
  19 C19           -0.6954    15.9431    -6.9725 C.3     
  20 C20            4.2950    16.3114    -6.9182 C.3     
  21 O21           -1.1727     9.9156     2.7619 O.2     
  22 N22           -1.8771     8.1783     1.5755 N.am    
  23 C23            1.1209    10.6335    -3.5100 C.3     
  24 C24           -0.7851     7.3374     2.0721 C.3     
  25 C25            0.4248     7.5131     1.1911 C.2     
  26 O26            0.3796     8.2637     0.2453 O.2     
  27 O27            1.5527     6.8357     1.4569 O.3     
  28 C28           -1.2214     5.8710     2.0529 C.3     
  29 C29           -2.6069    11.8350     1.4923 C.3     
  30 C30           -3.6790    12.5263     2.3598 C.3     
  31 C31           -4.3027    11.3726     3.1839 C.3     
  32 C32           -4.3371    10.2043     2.1664 C.3     
  33 C33           -2.3540     5.6627     3.0602 C.3     
  34 C34           -3.5927     6.4350     2.6018 C.3     
  35 C35           -2.6872     4.1722     3.1519 C.3     
  36 H36            1.7387    17.0238    -7.4151 H       
  37 H37            4.0932    13.9183    -5.6846 H       
  38 H38           -0.1715    13.6069    -5.7246 H       
  39 H39            2.8017    11.7923    -5.1675 H       
  40 H40           -1.3598     9.7412    -4.0931 H       
  41 H41           -3.2690     9.4713    -2.5631 H       
  42 H42           -0.8722    10.9100     0.6696 H       
  43 H43            1.0323    11.1767    -0.8667 H       
  44 H44           -0.9749    15.6073    -7.9711 H       
  45 H45           -1.4411    15.6043    -6.2533 H       
  46 H46           -0.6435    17.0317    -6.9565 H       
  47 H47            4.5525    16.9695    -6.0884 H       
  48 H48            5.1114    15.6109    -7.0933 H       
  49 H49            4.1283    16.9069    -7.8159 H       
  50 H50           -2.5417     7.8057     0.9751 H       
  51 H51            1.0534     9.8897    -4.3039 H       
  52 H52            2.0504    10.4929    -2.9584 H       
  53 H53           -0.5370     7.6293     3.0926 H       
  54 H54            2.3024     6.9812     0.8637 H       
  55 H55           -1.5706     5.6089     1.0542 H       
  56 H56           -0.3761     5.2370     2.3204 H       
  57 H57           -1.6323    11.9075     1.9749 H       
  58 H58           -2.5707    12.2964     0.5054 H       
  59 H59           -3.2194    13.2617     3.0202 H       
  60 H60           -4.4341    12.9968     1.7301 H       
  61 H61           -3.6721    11.1225     4.0371 H       
  62 H62           -5.3102    11.6313     3.5095 H       
  63 H63           -5.1984    10.2995     1.5052 H       
  64 H64           -4.3580     9.2463     2.6860 H       
  65 H65           -2.0410     6.0259     4.0391 H       
  66 H66           -3.3834     7.5044     2.6253 H       
  67 H67           -3.8508     6.1375     1.5855 H       
  68 H68           -4.4263     6.2132     3.2681 H       
  69 H69           -1.8047     3.6220     3.4785 H       
  70 H70           -3.4941     4.0238     3.8695 H       
  71 H71           -3.0002     3.8090     2.1730 H       
@<TRIPOS>BOND
   1    1    2 ar
   2    1   19 1
   3    1    6 ar
   4    2    3 ar
   5    2   36 1
   6    3    4 ar
   7    3   20 1
   8    4    5 ar
   9    4   37 1
  10    5    6 ar
  11    5    7 1
  12    6   38 1
  13    7    8 am
  14    7   39 1
  15    8    9 2
  16    8   23 1
  17   10   11 ar
  18   10   15 ar
  19   10   23 1
  20   11   12 ar
  21   11   40 1
  22   12   13 ar
  23   12   41 1
  24   13   14 ar
  25   13   16 1
  26   14   15 ar
  27   14   42 1
  28   15   43 1
  29   16   17 1
  30   17   18 1
  31   17   29 1
  32   17   32 1
  33   18   21 2
  34   18   22 am
  35   19   44 1
  36   19   45 1
  37   19   46 1
  38   20   47 1
  39   20   48 1
  40   20   49 1
  41   22   24 1
  42   22   50 1
  43   23   51 1
  44   23   52 1
  45   24   25 1
  46   24   28 1
  47   24   53 1
  48   25   26 2
  49   25   27 1
  50   27   54 1
  51   28   33 1
  52   28   55 1
  53   28   56 1
  54   29   30 1
  55   29   57 1
  56   29   58 1
  57   30   31 1
  58   30   59 1
  59   30   60 1
  60   31   32 1
  61   31   61 1
  62   31   62 1
  63   32   63 1
  64   32   64 1
  65   33   34 1
  66   33   35 1
  67   33   65 1
  68   34   66 1
  69   34   67 1
  70   34   68 1
  71   35   69 1
  72   35   70 1
  73   35   71 1

#	End of record

