#	Name: ASD02030379
#	Creating user name:	WinNT
#	Creation time:	15. 06. 2019 20:15

#	Modifying user name:	WinNT
#	Modification time:	15. 06. 2019 20:15

#	Program:	/corina/corina34_cracker 3.40 0067  02.08.2006

@<TRIPOS>MOLECULE
ASD02030379
  63   67    0    0    0
SMALL
NO_CHARGES


@<TRIPOS>ATOM
   1 C1            -0.1898     1.7368    -1.3625 C.2     
   2 O2            -0.2113     0.5217    -1.3331 O.2     
   3 N3             0.9566     2.3969    -1.1048 N.am    
   4 C4             2.1533     1.6708    -0.6571 C.3     
   5 C5             3.3102     1.9987    -1.6092 C.3     
   6 N6             3.3860     3.4574    -1.7712 N.am    
   7 C7             2.1893     4.1834    -2.2190 C.3     
   8 C8             1.0340     3.8549    -1.2723 C.3     
   9 C9             2.5177     2.1078     0.7632 C.3     
  10 C10            1.8796     0.1657    -0.6807 C.3     
  11 C11            4.5324     4.1175    -1.5135 C.2     
  12 O12            5.5457     3.4979    -1.2567 O.2     
  13 C13            4.5572     5.5989    -1.5433 C.ar    
  14 C14            5.7649     6.2642    -1.7450 C.ar    
  15 C15            5.7796     7.6512    -1.7715 C.ar    
  16 C16            4.5869     8.3296    -1.5958 C.ar    
  17 C17            3.4096     7.6016    -1.3978 C.ar    
  18 N18            3.4292     6.2771    -1.3832 N.ar    
  19 C19           -0.2198     8.4179    -0.4230 C.3     
  20 C20            0.8752     7.5151    -0.9975 C.3     
  21 C21            2.1302     8.3166    -1.2090 C.2     
  22 C22            2.1288     9.6331    -1.2314 C.2     
  23 C23            0.8792    10.4455    -1.0405 C.3     
  24 O24           -0.2743     9.6180    -1.2038 O.3     
  25 N25           -3.4011     2.9294    -2.2869 N.pl3   
  26 N26           -2.5548     1.9745    -2.1073 N.2     
  27 C27           -1.4197     2.4902    -1.6870 C.2     
  28 N28           -1.5756     3.8243    -1.6044 N.2     
  29 C29           -2.8007     4.0964    -1.9754 C.2     
  30 C30           -4.7203     2.7811    -2.7359 C.ar    
  31 C31           -5.2174     1.5183    -3.0291 C.ar    
  32 C32           -6.5189     1.3754    -3.4718 C.ar    
  33 C33           -7.3257     2.4900    -3.6231 C.ar    
  34 C34           -6.8325     3.7481    -3.3317 C.ar    
  35 C35           -5.5344     3.8961    -2.8830 C.ar    
  36 Cl36          -7.1420    -0.2028    -3.8388 Cl      
  37 H37            4.2455     1.6281    -1.1896 H       
  38 H38            3.1305     1.5318    -2.5776 H       
  39 H39            2.3843     5.2557    -2.2021 H       
  40 H40            1.9297     3.8721    -3.2308 H       
  41 H41            0.1000     4.2247    -1.6953 H       
  42 H42            1.2120     4.3253    -0.3052 H       
  43 H43            1.6881     1.8877     1.4352 H       
  44 H44            3.4054     1.5680     1.0930 H       
  45 H45            2.7191     3.1790     0.7734 H       
  46 H46            1.5915    -0.1354    -1.6879 H       
  47 H47            2.7802    -0.3721    -0.3844 H       
  48 H48            1.0722    -0.0677     0.0133 H       
  49 H49            6.6797     5.7061    -1.8788 H       
  50 H50            6.7029     8.1899    -1.9259 H       
  51 H51            4.5654     9.4093    -1.6109 H       
  52 H52           -1.1804     7.9050    -0.4713 H       
  53 H53            0.0151     8.6653     0.6122 H       
  54 H54            1.0769     6.7010    -0.3013 H       
  55 H55            0.5431     7.1033    -1.9506 H       
  56 H56            3.0633    10.1497    -1.3931 H       
  57 H57            0.8770    10.8751    -0.0388 H       
  58 H58            0.8547    11.2491    -1.7765 H       
  59 H59           -3.2498     5.0775    -2.0230 H       
  60 H60           -4.5877     0.6487    -2.9118 H       
  61 H61           -8.3422     2.3765    -3.9698 H       
  62 H62           -7.4643     4.6159    -3.4506 H       
  63 H63           -5.1516     4.8790    -2.6510 H       
@<TRIPOS>BOND
   1    1    2 2
   2    1    3 am
   3    1   27 1
   4    3    4 1
   5    3    8 1
   6    4    5 1
   7    4    9 1
   8    4   10 1
   9    5    6 1
  10    5   37 1
  11    5   38 1
  12    6    7 1
  13    6   11 am
  14    7    8 1
  15    7   39 1
  16    7   40 1
  17    8   41 1
  18    8   42 1
  19    9   43 1
  20    9   44 1
  21    9   45 1
  22   10   46 1
  23   10   47 1
  24   10   48 1
  25   11   12 2
  26   11   13 1
  27   13   14 ar
  28   13   18 ar
  29   14   15 ar
  30   14   49 1
  31   15   16 ar
  32   15   50 1
  33   16   17 ar
  34   16   51 1
  35   17   18 ar
  36   17   21 1
  37   19   20 1
  38   19   24 1
  39   19   52 1
  40   19   53 1
  41   20   21 1
  42   20   54 1
  43   20   55 1
  44   21   22 2
  45   22   23 1
  46   22   56 1
  47   23   24 1
  48   23   57 1
  49   23   58 1
  50   25   26 1
  51   25   29 1
  52   25   30 1
  53   26   27 2
  54   27   28 1
  55   28   29 2
  56   29   59 1
  57   30   31 ar
  58   30   35 ar
  59   31   32 ar
  60   31   60 1
  61   32   33 ar
  62   32   36 1
  63   33   34 ar
  64   33   61 1
  65   34   35 ar
  66   34   62 1
  67   35   63 1

#	End of record

