#	Name: ASD05380048
#	Creating user name:	WinNT
#	Creation time:	15. 06. 2019 20:59

#	Modifying user name:	WinNT
#	Modification time:	15. 06. 2019 20:59

#	Program:	/corina/corina34_cracker 3.40 0067  02.08.2006

@<TRIPOS>MOLECULE
ASD05380048
  55   59    0    0    0
SMALL
NO_CHARGES


@<TRIPOS>ATOM
   1 C1             0.0503     1.0821     0.2130 C.ar    
   2 C2             0.0203    -0.2824    -0.1526 C.ar    
   3 C3             1.2704     1.7357     0.3708 C.ar    
   4 C4             2.4435     1.0419     0.1679 C.ar    
   5 C5             2.4178    -0.2989    -0.1919 C.ar    
   6 C6             1.2224    -0.9636    -0.3521 C.ar    
   7 C7             1.3070     3.1911     0.7602 C.3     
   8 N8            -1.1794    -0.8982    -0.3000 N.2     
   9 C9            -2.2972    -0.2646    -0.1136 C.2     
  10 N10           -2.3629     1.0478     0.2394 N.am    
  11 C11           -1.2325     1.7693     0.4221 C.2     
  12 C12           -3.6115     1.6561     0.4205 C.ar    
  13 C13           -4.1639     1.7459     1.6913 C.ar    
  14 C14           -4.2968     2.1759    -0.6696 C.ar    
  15 C15           -5.5276     2.7756    -0.4877 C.ar    
  16 C16           -6.0772     2.8592     0.7784 C.ar    
  17 C17           -5.3950     2.3468     1.8667 C.ar    
  18 C18           -3.5875    -1.0211    -0.2980 C.3     
  19 N19           -3.4405    -1.9761    -1.3991 N.pl3   
  20 C20           -4.5559    -2.4029    -2.0985 C.ar    
  21 N21           -5.7676    -1.9563    -1.7841 N.ar    
  22 O22           -1.2763     2.9440     0.7380 O.2     
  23 C23           -4.4330    -3.3139    -3.1610 C.ar    
  24 C24           -5.6015    -3.7105    -3.8335 C.ar    
  25 N25           -6.7709    -3.2140    -3.4438 N.ar    
  26 C26           -6.8373    -2.3580    -2.4458 C.ar    
  27 N27           -3.3961    -3.9576    -3.7491 N.2     
  28 C28           -3.8427    -4.7055    -4.7159 C.2     
  29 N29           -5.1977    -4.5876    -4.8081 N.pl3   
  30 C30           -3.9249    -1.7754     0.9897 C.3     
  31 C31           -3.6981     2.0862    -2.0497 C.3     
  32 C32           -3.4211     1.1878     2.8779 C.3     
  33 H33            3.3912     1.5454     0.2894 H       
  34 H34            3.3468    -0.8272    -0.3477 H       
  35 H35            1.2150    -2.0069    -0.6314 H       
  36 H36            1.2151     3.2800     1.8427 H       
  37 H37            2.2517     3.6296     0.4386 H       
  38 H38            0.4808     3.7163     0.2810 H       
  39 H39           -6.0611     3.1800    -1.3352 H       
  40 H40           -7.0395     3.3292     0.9182 H       
  41 H41           -5.8271     2.4132     2.8543 H       
  42 H42           -4.3896    -0.3203    -0.5294 H       
  43 H43           -2.5614    -2.3093    -1.6380 H       
  44 H44           -7.8031    -1.9702    -2.1571 H       
  45 H45           -3.2302    -5.3278    -5.3515 H       
  46 H46           -5.7712    -5.0412    -5.4454 H       
  47 H47           -4.7977    -2.4066     0.8229 H       
  48 H48           -3.0774    -2.3964     1.2797 H       
  49 H49           -4.1400    -1.0604     1.7838 H       
  50 H50           -4.0161     1.1578    -2.5240 H       
  51 H51           -4.0344     2.9333    -2.6474 H       
  52 H52           -2.6107     2.1025    -1.9757 H       
  53 H53           -2.7793     1.9605     3.3010 H       
  54 H54           -4.1360     0.8566     3.6311 H       
  55 H55           -2.8108     0.3426     2.5597 H       
@<TRIPOS>BOND
   1    1    2 ar
   2    1    3 ar
   3    1   11 1
   4    2    8 1
   5    2    6 ar
   6    3    4 ar
   7    3    7 1
   8    4    5 ar
   9    4   33 1
  10    5    6 ar
  11    5   34 1
  12    6   35 1
  13    7   36 1
  14    7   37 1
  15    7   38 1
  16    8    9 2
  17    9   10 1
  18    9   18 1
  19   10   11 am
  20   10   12 1
  21   11   22 2
  22   12   13 ar
  23   12   14 ar
  24   13   32 1
  25   13   17 ar
  26   14   15 ar
  27   14   31 1
  28   15   16 ar
  29   15   39 1
  30   16   17 ar
  31   16   40 1
  32   17   41 1
  33   18   19 1
  34   18   30 1
  35   18   42 1
  36   19   20 1
  37   19   43 1
  38   20   21 ar
  39   20   23 ar
  40   21   26 ar
  41   23   24 ar
  42   23   27 1
  43   24   25 ar
  44   24   29 1
  45   25   26 ar
  46   26   44 1
  47   27   28 2
  48   28   29 1
  49   28   45 1
  50   29   46 1
  51   30   47 1
  52   30   48 1
  53   30   49 1
  54   31   50 1
  55   31   51 1
  56   31   52 1
  57   32   53 1
  58   32   54 1
  59   32   55 1

#	End of record

