#	Name: ASD05740043
#	Creating user name:	WinNT
#	Creation time:	15. 06. 2019 21:02

#	Modifying user name:	WinNT
#	Modification time:	15. 06. 2019 21:02

#	Program:	/corina/corina34_cracker 3.40 0067  02.08.2006

@<TRIPOS>MOLECULE
ASD05740043
  52   53    0    0    0
SMALL
NO_CHARGES


@<TRIPOS>ATOM
   1 C1            -0.0184     1.5028     0.0103 C.3     
   2 C2            -0.1160    -4.2854     2.2004 C.ar    
   3 C3            -0.0118    -4.9174     0.9625 C.ar    
   4 C4            -0.1388    -2.9234     2.2814 C.ar    
   5 C5            -0.0568    -2.1558     1.1138 C.ar    
   6 C6             0.0486    -2.7882    -0.1389 C.ar    
   7 C7             0.0703    -4.1733    -0.2029 C.ar    
   8 C8            -0.0799    -0.6927     1.1702 C.2     
   9 C9             0.0021    -0.0041     0.0020 C.2     
  10 C10            0.1059    -0.7029    -1.2182 C.2     
  11 O11            0.1261    -2.0442    -1.2630 O.3     
  12 C12            1.3954     2.0244    -0.0004 C.2     
  13 C13            2.1042     2.2956    -1.0954 C.2     
  14 O14            0.1787    -0.0733    -2.2583 O.2     
  15 O15            0.0100    -6.2731     0.8986 O.3     
  16 C16           -0.1922     0.0295     2.4881 C.3     
  17 S17            2.3558     2.3740     1.4307 S.3     
  18 C18            3.7117     2.8861     0.4344 C.2     
  19 C19            3.3864     2.7664    -0.8611 C.2     
  20 N20            4.9397     3.3419     0.9177 N.am    
  21 S21            4.9861     4.4340     2.1616 S.o2    
  22 O22            6.3715     4.6792     2.3612 O.2     
  23 O23            4.1103     5.4738     1.7480 O.2     
  24 C24           -0.0777    -6.9825     2.1360 C.3     
  25 C25            4.2879     3.5387     3.5764 C.3     
  26 C26            4.2764     4.4529     4.8032 C.3     
  27 H27           -0.5455     1.8639    -0.8728 H       
  28 H28           -0.5286     1.8543     0.9071 H       
  29 H29           -0.1838    -4.8776     3.1010 H       
  30 H30           -0.2201    -2.4393     3.2434 H       
  31 H31            0.1509    -4.6703    -1.1584 H       
  32 H32            1.7093     2.1584    -2.0912 H       
  33 H33           -0.2461    -0.6983     3.2977 H       
  34 H34            0.6814     0.6659     2.6292 H       
  35 H35           -1.0930     0.6432     2.4906 H       
  36 H36            4.0671     3.0242    -1.6589 H       
  37 H37            5.7657     3.0188     0.5249 H       
  38 H38            0.7620    -6.7059     2.7736 H       
  39 H39           -1.0125    -6.7278     2.6353 H       
  40 H40           -0.0494    -8.0549     1.9428 H       
  41 H41            3.2687     3.2299     3.3438 H       
  42 H42            4.8956     2.6583     3.7850 H       
  43 H43            3.8568     3.9149     5.6533 H       
  44 H44            5.2955     4.7617     5.0357 H       
  45 H45            3.6686     5.3333     4.5945 H       
  46 C46           11.8987    13.1431    12.5216 C.3     
  47 N47           11.9186    11.6782    12.5135 N.2     
  48 C48           12.4593    11.0657    11.5675 C.1     
  49 O49           12.9818    10.4738    10.6533 O.2     
  50 H50           12.9213    13.5204    12.5138 H       
  51 H51           11.3715    13.5042    11.6385 H       
  52 H52           11.3885    13.4946    13.4183 H       
@<TRIPOS>BOND
   1    1    9 1
   2    1   12 1
   3    1   27 1
   4    1   28 1
   5    2    3 ar
   6    2    4 ar
   7    2   29 1
   8    3   15 1
   9    3    7 ar
  10    4    5 ar
  11    4   30 1
  12    5    6 ar
  13    5    8 1
  14    6    7 ar
  15    6   11 1
  16    7   31 1
  17    8    9 2
  18    8   16 1
  19    9   10 1
  20   10   11 1
  21   10   14 2
  22   12   13 2
  23   12   17 1
  24   13   19 1
  25   13   32 1
  26   15   24 1
  27   16   33 1
  28   16   34 1
  29   16   35 1
  30   17   18 1
  31   18   19 2
  32   18   20 1
  33   19   36 1
  34   20   21 am
  35   20   37 1
  36   21   22 2
  37   21   23 2
  38   21   25 1
  39   24   38 1
  40   24   39 1
  41   24   40 1
  42   25   26 1
  43   25   41 1
  44   25   42 1
  45   26   43 1
  46   26   44 1
  47   26   45 1
  48   46   47 1
  49   46   50 1
  50   46   51 1
  51   46   52 1
  52   47   48 2
  53   48   49 2

#	End of record

