#	Name: ASD01940699
#	Creating user name:	WinNT
#	Creation time:	15. 06. 2019 20:13

#	Modifying user name:	WinNT
#	Modification time:	15. 06. 2019 20:13

#	Program:	/corina/corina34_cracker 3.40 0067  02.08.2006

@<TRIPOS>MOLECULE
ASD01940699
  45   47    0    0    0
SMALL
NO_CHARGES


@<TRIPOS>ATOM
   1 C1             0.1860     0.9952     0.9997 C.ar    
   2 C2            -0.3273     0.3908    -0.1331 C.ar    
   3 C3             0.4638     0.2361    -1.2587 C.ar    
   4 C4             1.7745     0.6861    -1.2548 C.ar    
   5 C5             2.2953     1.2938    -0.1201 C.ar    
   6 C6             1.4965     1.4487     1.0117 C.ar    
   7 N7             2.0167     2.0616     2.1595 N.am    
   8 S8             1.5614     1.5303     3.6604 S.o2    
   9 C9             2.2426    -0.1472     3.7727 C.3     
  10 O10            2.2328     2.4023     4.5594 O.2     
  11 O11            0.1422     1.4894     3.6021 O.2     
  12 F12           -0.0427    -0.3551    -2.3628 F       
  13 F13            2.5450     0.5334    -2.3540 F       
  14 N14            3.6207     1.7497    -0.1126 N.pl3   
  15 C15            4.6654     0.8576     0.1472 C.ar    
  16 C16            5.9684     1.3282     0.2776 C.ar    
  17 C17            4.4045    -0.4993     0.2814 C.ar    
  18 C18            5.4392    -1.3786     0.5382 C.ar    
  19 C19            6.7335    -0.9093     0.6621 C.ar    
  20 C20            6.9981     0.4425     0.5344 C.ar    
  21 F21            6.2266     2.6484     0.1529 F       
  22 C22            7.8584    -1.8721     0.9426 C.3     
  23 C23            1.7859    -0.8151     5.0815 C.3     
  24 C24            0.9796    -2.0673     4.6793 C.3     
  25 C25            1.4972    -2.4129     3.2609 C.3     
  26 C26            1.6980    -1.0168     2.6208 C.3     
  27 H27           -0.4356     1.1181     1.8743 H       
  28 H28           -1.3481     0.0381    -0.1398 H       
  29 H29            2.6435     2.7971     2.0748 H       
  30 H30            3.3312    -0.1113     3.7319 H       
  31 H31            3.8132     2.6842    -0.2877 H       
  32 H32            3.3937    -0.8674     0.1856 H       
  33 H33            5.2361    -2.4342     0.6426 H       
  34 H34            8.0106     0.8057     0.6318 H       
  35 H35            8.2724    -2.2316     0.0005 H       
  36 H36            8.6374    -1.3649     1.5118 H       
  37 H37            7.4791    -2.7163     1.5183 H       
  38 H38            2.6528    -1.1041     5.6755 H       
  39 H39            1.1549    -0.1312     5.6493 H       
  40 H40            1.1796    -2.8875     5.3687 H       
  41 H41           -0.0865    -1.8420     4.6519 H       
  42 H42            2.4428    -2.9523     3.3156 H       
  43 H43            0.7545    -2.9881     2.7082 H       
  44 H44            0.7479    -0.6219     2.2610 H       
  45 H45            2.4223    -1.0704     1.8079 H       
@<TRIPOS>BOND
   1    1    2 ar
   2    1    6 ar
   3    1   27 1
   4    2    3 ar
   5    2   28 1
   6    3    4 ar
   7    3   12 1
   8    4    5 ar
   9    4   13 1
  10    5    6 ar
  11    5   14 1
  12    6    7 1
  13    7    8 am
  14    7   29 1
  15    8    9 1
  16    8   10 2
  17    8   11 2
  18    9   23 1
  19    9   26 1
  20    9   30 1
  21   14   15 1
  22   14   31 1
  23   15   16 ar
  24   15   17 ar
  25   16   21 1
  26   16   20 ar
  27   17   18 ar
  28   17   32 1
  29   18   19 ar
  30   18   33 1
  31   19   20 ar
  32   19   22 1
  33   20   34 1
  34   22   35 1
  35   22   36 1
  36   22   37 1
  37   23   24 1
  38   23   38 1
  39   23   39 1
  40   24   25 1
  41   24   40 1
  42   24   41 1
  43   25   26 1
  44   25   42 1
  45   25   43 1
  46   26   44 1
  47   26   45 1

#	End of record

