#	Name: ASD08070344
#	Creating user name:	WinNT
#	Creation time:	15. 06. 2019 21:14

#	Modifying user name:	WinNT
#	Modification time:	15. 06. 2019 21:14

#	Program:	/corina/corina34_cracker 3.40 0067  02.08.2006

@<TRIPOS>MOLECULE
ASD08070344
  38   39    0    0    0
SMALL
NO_CHARGES


@<TRIPOS>ATOM
   1 C1            -0.0179     1.4713     0.0101 C.2     
   2 C2             0.0021    -0.0041     0.0020 C.ar    
   3 C3             0.0232    -0.7133     1.2074 C.ar    
   4 C4             0.0414    -2.0971     1.1917 C.ar    
   5 C5             0.0388    -2.7794    -0.0132 C.ar    
   6 C6             0.0184    -2.0842    -1.2106 C.ar    
   7 C7            -0.0058    -0.7004    -1.2110 C.ar    
   8 O8             1.0266     2.0935     0.0035 O.2     
   9 N9            -1.1942     2.1293     0.0193 N.am    
  10 C10            0.0587    -4.2863    -0.0215 C.3     
  11 F11           -0.0313    -0.0239    -2.3801 F       
  12 F12            0.0165    -2.7585    -2.3813 F       
  13 F13            0.0622    -2.7839     2.3549 F       
  14 F14            0.0262    -0.0493     2.3839 F       
  15 C15           -1.2140     3.5941     0.0273 C.3     
  16 C16           -2.4710     4.0516    -0.5462 C.3     
  17 C17           -2.5502     5.5892    -0.6382 C.3     
  18 C18           -2.9169     6.1309     0.7169 C.3     
  19 C19           -1.6814     6.5301     1.5463 C.3     
  20 C20           -0.5302     5.5127     1.4308 C.3     
  21 C21           -1.0138     4.0884     1.4746 C.3     
  22 H22           -2.0275     1.6329     0.0205 H       
  23 H23           -0.9641    -4.6632    -0.0136 H       
  24 H24            0.5686    -4.6380    -0.9184 H       
  25 H25            0.5859    -4.6475     0.8614 H       
  26 H26           -0.3916     3.9613    -0.5866 H       
  27 H27           -2.5758     3.6323    -1.5468 H       
  28 H28           -3.2930     3.6923     0.0730 H       
  29 H29           -1.5825     5.9881    -0.9424 H       
  30 H30           -3.3114     5.8739    -1.3645 H       
  31 H31           -3.5521     7.0070     0.5864 H       
  32 H32           -3.4763     5.3701     1.2613 H       
  33 H33           -1.3270     7.5022     1.2036 H       
  34 H34           -1.9728     6.6137     2.5933 H       
  35 H35           -0.0062     5.6784     0.4894 H       
  36 H36            0.1668     5.6739     2.2532 H       
  37 H37           -1.9606     4.0397     2.0125 H       
  38 H38           -0.2727     3.4653     1.9751 H       
@<TRIPOS>BOND
   1    1    2 1
   2    1    8 2
   3    1    9 am
   4    2    3 ar
   5    2    7 ar
   6    3    4 ar
   7    3   14 1
   8    4    5 ar
   9    4   13 1
  10    5    6 ar
  11    5   10 1
  12    6    7 ar
  13    6   12 1
  14    7   11 1
  15    9   15 1
  16    9   22 1
  17   10   23 1
  18   10   24 1
  19   10   25 1
  20   15   16 1
  21   15   21 1
  22   15   26 1
  23   16   17 1
  24   16   27 1
  25   16   28 1
  26   17   18 1
  27   17   29 1
  28   17   30 1
  29   18   19 1
  30   18   31 1
  31   18   32 1
  32   19   20 1
  33   19   33 1
  34   19   34 1
  35   20   21 1
  36   20   35 1
  37   20   36 1
  38   21   37 1
  39   21   38 1

#	End of record

