#	Name: ASD04590086
#	Creating user name:	WinNT
#	Creation time:	15. 06. 2019 20:50

#	Modifying user name:	WinNT
#	Modification time:	15. 06. 2019 20:50

#	Program:	/corina/corina34_cracker 3.40 0067  02.08.2006

@<TRIPOS>MOLECULE
ASD04590086
  37   38    0    0    0
SMALL
NO_CHARGES


@<TRIPOS>ATOM
   1 N1            -0.0178     1.4648     0.0101 N.3     
   2 C2             0.0021    -0.0041     0.0020 C.3     
   3 C3            -1.4333    -0.5336     0.0129 C.3     
   4 C4            -1.4126    -2.0635     0.0045 C.3     
   5 C5            -0.6964    -2.5569    -1.2543 C.3     
   6 C6             0.7390    -2.0273    -1.2652 C.3     
   7 C7             0.7182    -0.4975    -1.2568 C.3     
   8 N8            -0.6765    -4.0257    -1.2624 N.3     
   9 C9            -0.1015    -4.5378    -2.5141 C.3     
  10 C10           -0.0254    -6.0650    -2.4503 C.3     
  11 N11           -1.3719    -6.6112    -2.2305 N.3     
  12 C12           -1.9469    -6.0992    -0.9787 C.3     
  13 C13           -2.0230    -4.5719    -1.0426 C.3     
  14 C14           -1.3520    -8.0801    -2.2385 C.3     
  15 H15            0.9191     1.8392     0.0032 H       
  16 H16           -0.5563     1.8234    -0.7642 H       
  17 H17            0.5293    -0.3651     0.8851 H       
  18 H18           -1.9435    -0.1821     0.9097 H       
  19 H19           -1.9605    -0.1726    -0.8702 H       
  20 H20           -0.8854    -2.4246     0.8875 H       
  21 H21           -2.4352    -2.4408     0.0122 H       
  22 H22           -1.2236    -2.1958    -2.1374 H       
  23 H23            1.2661    -2.3884    -0.3821 H       
  24 H24            1.2492    -2.3788    -2.1620 H       
  25 H25            0.1910    -0.1364    -2.1398 H       
  26 H26            1.7408    -0.1202    -1.2645 H       
  27 H27           -0.7314    -4.2398    -3.3523 H       
  28 H28            0.9001    -4.1291    -2.6482 H       
  29 H29            0.3739    -6.4488    -3.3891 H       
  30 H30            0.6263    -6.3626    -1.6288 H       
  31 H31           -2.9485    -6.5079    -0.8447 H       
  32 H32           -1.3170    -6.3972    -0.1405 H       
  33 H33           -2.4223    -4.1881    -0.1038 H       
  34 H34           -2.6747    -4.2743    -1.8641 H       
  35 H35           -0.6956    -8.4389    -1.4458 H       
  36 H36           -2.3610    -8.4580    -2.0737 H       
  37 H37           -0.9846    -8.4331    -3.2021 H       
@<TRIPOS>BOND
   1    1    2 1
   2    1   15 1
   3    1   16 1
   4    2    3 1
   5    2    7 1
   6    2   17 1
   7    3    4 1
   8    3   18 1
   9    3   19 1
  10    4    5 1
  11    4   20 1
  12    4   21 1
  13    5    6 1
  14    5    8 1
  15    5   22 1
  16    6    7 1
  17    6   23 1
  18    6   24 1
  19    7   25 1
  20    7   26 1
  21    8    9 1
  22    8   13 1
  23    9   10 1
  24    9   27 1
  25    9   28 1
  26   10   11 1
  27   10   29 1
  28   10   30 1
  29   11   12 1
  30   11   14 1
  31   12   13 1
  32   12   31 1
  33   12   32 1
  34   13   33 1
  35   13   34 1
  36   14   35 1
  37   14   36 1
  38   14   37 1

#	End of record

