#	Name: ASD01310040
#	Creating user name:	WinNT
#	Creation time:	15. 06. 2019 19:15

#	Modifying user name:	WinNT
#	Modification time:	15. 06. 2019 19:15

#	Program:	/corina/corina34_cracker 3.40 0067  02.08.2006

@<TRIPOS>MOLECULE
ASD01310040
  47   49    0    0    0
SMALL
NO_CHARGES


@<TRIPOS>ATOM
   1 C1            -0.0222     1.3748    -0.1200 C.ar    
   2 C2             0.0125     0.0185     0.1820 C.ar    
   3 C3             1.2150    -0.6519     0.2105 C.ar    
   4 C4             2.4013     0.0330    -0.0652 C.ar    
   5 C5             2.3621     1.3964    -0.3689 C.ar    
   6 C6             1.1557     2.0597    -0.3949 C.ar    
   7 O7            -1.2098     2.0308    -0.1521 O.3     
   8 C8            -1.2675    -0.7192     0.4793 C.3     
   9 C9            -1.4510    -1.8509    -0.5339 C.3     
  10 C10           -1.2028    -1.3045     1.8914 C.3     
  11 C11            1.1123     3.5302    -0.7218 C.3     
  12 C12            1.9391     4.3057     0.3058 C.3     
  13 C13            1.6909     3.7592    -2.1196 C.3     
  14 C14            3.6925    -0.6816    -0.0354 C.2     
  15 O15            3.7152    -1.8910     0.0876 O.2     
  16 N16            4.8462     0.0065    -0.1444 N.am    
  17 C17            6.2816    -0.3232    -0.1052 C.3     
  18 C18            5.2210     1.4147    -0.3611 C.3     
  19 C19            6.5314     1.1059     0.3540 C.3     
  20 C20            6.7710     1.4621     1.8194 C.3     
  21 C21            7.8265     1.8503     0.0372 C.3     
  22 O22            7.5990     2.5234     1.2951 O.3     
  23 H23            1.2412    -1.7056     0.4460 H       
  24 H24            3.2769     1.9294    -0.5822 H       
  25 H25           -1.4704     2.4141     0.6965 H       
  26 H26           -2.1088    -0.0296     0.4100 H       
  27 H27           -0.6097    -2.5405    -0.4646 H       
  28 H28           -2.3768    -2.3845    -0.3189 H       
  29 H29           -1.4971    -1.4340    -1.5399 H       
  30 H30           -1.0721    -0.4982     2.6132 H       
  31 H31           -2.1286    -1.8381     2.1064 H       
  32 H32           -0.3615    -1.9941     1.9607 H       
  33 H33            0.0797     3.8781    -0.6945 H       
  34 H34            2.9717     3.9577     0.2785 H       
  35 H35            1.9077     5.3693     0.0693 H       
  36 H36            1.5269     4.1425     1.3015 H       
  37 H37            1.1018     3.2067    -2.8516 H       
  38 H38            1.6595     4.8228    -2.3560 H       
  39 H39            2.7235     3.4112    -2.1468 H       
  40 H40            6.5359    -1.0721     0.6448 H       
  41 H41            6.7040    -0.5455    -1.0852 H       
  42 H42            5.3493     1.6742    -1.4120 H       
  43 H43            4.5870     2.1212     0.1746 H       
  44 H44            5.8802     1.8125     2.3408 H       
  45 H45            7.3229     0.7036     2.3746 H       
  46 H46            8.7118     1.2144     0.0295 H       
  47 H47            7.7597     2.5037    -0.8326 H       
@<TRIPOS>BOND
   1    1    2 ar
   2    1    6 ar
   3    1    7 1
   4    2    3 ar
   5    2    8 1
   6    3    4 ar
   7    3   23 1
   8    4    5 ar
   9    4   14 1
  10    5    6 ar
  11    5   24 1
  12    6   11 1
  13    7   25 1
  14    8    9 1
  15    8   10 1
  16    8   26 1
  17    9   27 1
  18    9   28 1
  19    9   29 1
  20   10   30 1
  21   10   31 1
  22   10   32 1
  23   11   12 1
  24   11   13 1
  25   11   33 1
  26   12   34 1
  27   12   35 1
  28   12   36 1
  29   13   37 1
  30   13   38 1
  31   13   39 1
  32   14   15 2
  33   14   16 am
  34   16   17 1
  35   16   18 1
  36   17   19 1
  37   17   40 1
  38   17   41 1
  39   18   19 1
  40   18   42 1
  41   18   43 1
  42   19   20 1
  43   19   21 1
  44   20   22 1
  45   20   44 1
  46   20   45 1
  47   21   22 1
  48   21   46 1
  49   21   47 1

#	End of record

