#	Name: ASD01140110
#	Creating user name:	WinNT
#	Creation time:	15. 06. 2019 18:59

#	Modifying user name:	WinNT
#	Modification time:	15. 06. 2019 18:59

#	Program:	/corina/corina34_cracker 3.40 0067  02.08.2006

@<TRIPOS>MOLECULE
ASD01140110
  45   46    0    0    0
SMALL
NO_CHARGES


@<TRIPOS>ATOM
   1 C1            -0.0157     1.7513     0.1623 C.3     
   2 C2            -0.0533     0.2130     0.0389 C.3     
   3 C3             1.3530    -0.1278    -0.5019 C.3     
   4 C4             2.0439     1.2131    -0.6434 C.2     
   5 O5             1.4015     2.0993     0.1394 O.3     
   6 O6             3.0048     1.4461    -1.3379 O.2     
   7 N7            -0.2685    -0.4066     1.3488 N.am    
   8 C8             2.1064    -1.0139     0.4921 C.3     
   9 C9             1.2480    -0.8200    -1.8624 C.3     
  10 C10           -1.5214    -0.5845     1.8124 C.2     
  11 O11           -1.7193    -1.1540     3.0167 O.3     
  12 O12           -2.4726    -0.2309     1.1439 O.2     
  13 C13           -3.0049    -1.4179     3.3708 C.ar    
  14 C14            3.4518    -1.4252    -0.1094 C.3     
  15 C15            4.2620    -2.1976     0.9336 C.3     
  16 C16            0.5335    -2.1628    -1.6976 C.3     
  17 C17            0.5222    -2.9022    -3.0370 C.3     
  18 C18           -3.7116    -2.4215     2.7245 C.ar    
  19 C19           -5.0180    -2.6877     3.0861 C.ar    
  20 C20           -5.6213    -1.9549     4.0914 C.ar    
  21 C21           -4.9191    -0.9540     4.7372 C.ar    
  22 C22           -3.6106    -0.6878     4.3831 C.ar    
  23 H23           -0.5322     2.2114    -0.6801 H       
  24 H24           -0.4678     2.0667     1.1027 H       
  25 H25           -0.8234    -0.0982    -0.6670 H       
  26 H26            0.4908    -0.6888     1.8825 H       
  27 H27            2.2754    -0.4610     1.4161 H       
  28 H28            1.5158    -1.9050     0.7046 H       
  29 H29            0.6824    -0.1892    -2.5482 H       
  30 H30            2.2478    -0.9871    -2.2631 H       
  31 H31            3.2821    -2.0590    -0.9798 H       
  32 H32            4.0028    -0.5342    -0.4106 H       
  33 H33            5.2204    -2.4906     0.5051 H       
  34 H34            4.4317    -1.5638     1.8041 H       
  35 H35            3.7110    -3.0885     1.2348 H       
  36 H36            1.0575    -2.7644    -0.9549 H       
  37 H37           -0.4914    -1.9911    -1.3687 H       
  38 H38            0.0132    -3.8589    -2.9196 H       
  39 H39           -0.0018    -2.3006    -3.7797 H       
  40 H40            1.5471    -3.0739    -3.3659 H       
  41 H41           -3.2409    -2.9940     1.9389 H       
  42 H42           -5.5687    -3.4687     2.5829 H       
  43 H43           -6.6428    -2.1642     4.3725 H       
  44 H44           -5.3925    -0.3830     5.5222 H       
  45 H45           -3.0623     0.0938     4.8880 H       
@<TRIPOS>BOND
   1    1    2 1
   2    1    5 1
   3    1   23 1
   4    1   24 1
   5    2    3 1
   6    2    7 1
   7    2   25 1
   8    3    4 1
   9    3    9 1
  10    3    8 1
  11    4    5 1
  12    4    6 2
  13    7   10 am
  14    7   26 1
  15    8   14 1
  16    8   27 1
  17    8   28 1
  18    9   16 1
  19    9   29 1
  20    9   30 1
  21   10   11 1
  22   10   12 2
  23   11   13 1
  24   13   18 ar
  25   13   22 ar
  26   14   15 1
  27   14   31 1
  28   14   32 1
  29   15   33 1
  30   15   34 1
  31   15   35 1
  32   16   17 1
  33   16   36 1
  34   16   37 1
  35   17   38 1
  36   17   39 1
  37   17   40 1
  38   18   19 ar
  39   18   41 1
  40   19   20 ar
  41   19   42 1
  42   20   21 ar
  43   20   43 1
  44   21   22 ar
  45   21   44 1
  46   22   45 1

#	End of record

