#	Name: ASD00960243
#	Creating user name:	WinNT
#	Creation time:	15. 06. 2019 18:53

#	Modifying user name:	WinNT
#	Modification time:	15. 06. 2019 18:53

#	Program:	/corina/corina34_cracker 3.40 0067  02.08.2006

@<TRIPOS>MOLECULE
ASD00960243
  34   36    0    0    0
SMALL
NO_CHARGES


@<TRIPOS>ATOM
   1 C1            -0.0167     1.3829     0.0096 C.2     
   2 C2             0.0021    -0.0041     0.0020 C.2     
   3 N3             1.2802     1.8103    -0.0004 N.pl3   
   4 C4             2.0967     0.7210     0.0004 C.2     
   5 C5             1.3459    -0.3954    -0.0054 C.2     
   6 N6             1.7983     3.1141     0.0033 N.2     
   7 C7             3.0676     3.2761    -0.2336 C.2     
   8 N8             3.8937     2.2124    -0.5250 N.pl3   
   9 C9             3.6012     0.8739     0.0189 C.3     
  10 N10            4.1010     0.7702     1.3964 N.3     
  11 Cl11           3.7385     4.8765    -0.1817 Cl      
  12 C12           -1.2080     2.2324     0.0202 C.2     
  13 O13           -2.3148     1.7278     0.0234 O.2     
  14 O14           -1.0789     3.5753     0.0263 O.3     
  15 C15           -2.2842     4.3429     0.0365 C.3     
  16 C16           -1.9446     5.8111     0.0422 C.ar    
  17 C17           -1.7951     6.4906    -1.1523 C.ar    
  18 C18           -1.4836     7.8374    -1.1471 C.ar    
  19 C19           -1.3220     8.5048     0.0527 C.ar    
  20 C20           -1.4724     7.8255     1.2472 C.ar    
  21 C21           -1.7882     6.4797     1.2420 C.ar    
  22 H22           -0.8574    -0.6581     0.0021 H       
  23 H23            1.7138    -1.4107    -0.0142 H       
  24 H24            4.6709     2.3451    -1.0901 H       
  25 H25            4.0619     0.1083    -0.6053 H       
  26 H26            5.0987     0.9171     1.4310 H       
  27 H27            3.6193     1.4144     2.0054 H       
  28 H28           -2.8713     4.1092    -0.8516 H       
  29 H29           -2.8620     4.1001     0.9283 H       
  30 H30           -1.9214     5.9692    -2.0896 H       
  31 H31           -1.3661     8.3681    -2.0803 H       
  32 H32           -1.0779     9.5568     0.0567 H       
  33 H33           -1.3458     8.3469     2.1845 H       
  34 H34           -1.9094     5.9499     2.1752 H       
@<TRIPOS>BOND
   1    1    2 2
   2    1    3 1
   3    1   12 1
   4    2    5 1
   5    2   22 1
   6    3    4 1
   7    3    6 1
   8    4    5 2
   9    4    9 1
  10    5   23 1
  11    6    7 2
  12    7    8 1
  13    7   11 1
  14    8    9 1
  15    8   24 1
  16    9   10 1
  17    9   25 1
  18   10   26 1
  19   10   27 1
  20   12   13 2
  21   12   14 1
  22   14   15 1
  23   15   16 1
  24   15   28 1
  25   15   29 1
  26   16   17 ar
  27   16   21 ar
  28   17   18 ar
  29   17   30 1
  30   18   19 ar
  31   18   31 1
  32   19   20 ar
  33   19   32 1
  34   20   21 ar
  35   20   33 1
  36   21   34 1

#	End of record

