#	Name: ASD04910498
#	Creating user name:	WinNT
#	Creation time:	15. 06. 2019 20:56

#	Modifying user name:	WinNT
#	Modification time:	15. 06. 2019 20:56

#	Program:	/corina/corina34_cracker 3.40 0067  02.08.2006

@<TRIPOS>MOLECULE
ASD04910498
  60   63    0    0    0
SMALL
NO_CHARGES


@<TRIPOS>ATOM
   1 C1            -0.0166     1.3752     0.0096 C.ar    
   2 C2             0.0021    -0.0041     0.0020 C.ar    
   3 C3             1.2078    -0.6827    -0.0127 C.ar    
   4 C4             2.4021     0.0160    -0.0203 C.ar    
   5 C5             2.3980     1.3954    -0.0133 C.ar    
   6 C6             1.1849     2.0865     0.0020 C.ar    
   7 C7             1.1726     3.5637     0.0090 C.2     
   8 O8             0.0005     4.2275     0.0238 O.3     
   9 O9             2.2194     4.1798     0.0015 O.2     
  10 C10            1.2203    -2.1896    -0.0199 C.3     
  11 C11            1.4615    -2.6908    -1.4452 C.3     
  12 N12            2.2908    -2.6733     0.8555 N.pl3   
  13 C13            1.3504    -4.2165    -1.4750 C.3     
  14 C14            2.2026    -3.9447     1.4310 C.ar    
  15 C15            3.2157    -4.4136     2.2650 C.ar    
  16 C16            3.0859    -5.6779     2.8122 C.ar    
  17 C17            1.9582    -6.4325     2.5143 C.ar    
  18 N18            1.0152    -5.9557     1.7181 N.ar    
  19 C19            1.1018    -4.7538     1.1834 C.ar    
  20 N20            1.8182    -7.7123     3.0625 N.pl3   
  21 C21            0.7799    -8.5513     2.8594 C.2     
  22 C22            1.0269    -9.6918     3.5679 C.2     
  23 C23            2.2651    -9.5261     4.2212 C.2     
  24 N24            2.7334    -8.3463     3.9114 N.2     
  25 C25            0.1519   -10.8873     3.6378 C.ar    
  26 C26            1.5916    -4.7177    -2.9003 C.3     
  27 C27            0.5388   -11.9828     4.4070 C.ar    
  28 C28           -0.2881   -13.0910     4.4626 C.ar    
  29 C29           -1.4766   -13.0676     3.7461 C.ar    
  30 C30           -1.7985   -11.9474     3.0032 C.ar    
  31 N31           -0.9956   -10.9027     2.9717 N.ar    
  32 C32            0.0644     5.6781     0.0300 C.3     
  33 C33           -1.3541     6.2511     0.0467 C.3     
  34 H34           -0.9585     1.9037     0.0169 H       
  35 H35           -0.9265    -0.5555     0.0079 H       
  36 H36            3.3397    -0.5199    -0.0314 H       
  37 H37            3.3309     1.9395    -0.0190 H       
  38 H38            0.2611    -2.5626     0.3390 H       
  39 H39            0.7160    -2.2592    -2.1131 H       
  40 H40            2.4578    -2.3926    -1.7715 H       
  41 H41            3.0608    -2.1116     1.0359 H       
  42 H42            2.0958    -4.6481    -0.8071 H       
  43 H43            0.3541    -4.5147    -1.1487 H       
  44 H44            4.0818    -3.8049     2.4789 H       
  45 H45            3.8520    -6.0733     3.4626 H       
  46 H46            0.3122    -4.3983     0.5380 H       
  47 H47           -0.0885    -8.3554     2.2478 H       
  48 H48            2.7451   -10.2500     4.8631 H       
  49 H49            0.8461    -4.2860    -3.5682 H       
  50 H50            2.5879    -4.4195    -3.2266 H       
  51 H51            1.5124    -5.8046    -2.9215 H       
  52 H52            1.4711   -11.9674     4.9520 H       
  53 H53           -0.0146   -13.9550     5.0500 H       
  54 H54           -2.1434   -13.9169     3.7686 H       
  55 H55           -2.7224   -11.9262     2.4444 H       
  56 H56            0.6026     6.0143     0.9163 H       
  57 H57            0.5849     6.0227    -0.8636 H       
  58 H58           -1.8923     5.9149    -0.8395 H       
  59 H59           -1.8746     5.9065     0.9403 H       
  60 H60           -1.3061     7.3400     0.0514 H       
@<TRIPOS>BOND
   1    1    2 ar
   2    1    6 ar
   3    1   34 1
   4    2    3 ar
   5    2   35 1
   6    3    4 ar
   7    3   10 1
   8    4    5 ar
   9    4   36 1
  10    5    6 ar
  11    5   37 1
  12    6    7 1
  13    7    8 1
  14    7    9 2
  15    8   32 1
  16   10   11 1
  17   10   12 1
  18   10   38 1
  19   11   13 1
  20   11   39 1
  21   11   40 1
  22   12   14 1
  23   12   41 1
  24   13   26 1
  25   13   42 1
  26   13   43 1
  27   14   15 ar
  28   14   19 ar
  29   15   16 ar
  30   15   44 1
  31   16   17 ar
  32   16   45 1
  33   17   18 ar
  34   17   20 1
  35   18   19 ar
  36   19   46 1
  37   20   21 1
  38   20   24 1
  39   21   22 2
  40   21   47 1
  41   22   23 1
  42   22   25 1
  43   23   24 2
  44   23   48 1
  45   25   27 ar
  46   25   31 ar
  47   26   49 1
  48   26   50 1
  49   26   51 1
  50   27   28 ar
  51   27   52 1
  52   28   29 ar
  53   28   53 1
  54   29   30 ar
  55   29   54 1
  56   30   31 ar
  57   30   55 1
  58   32   33 1
  59   32   56 1
  60   32   57 1
  61   33   58 1
  62   33   59 1
  63   33   60 1

#	End of record

