#	Name: ASD04910408
#	Creating user name:	WinNT
#	Creation time:	15. 06. 2019 20:55

#	Modifying user name:	WinNT
#	Modification time:	15. 06. 2019 20:55

#	Program:	/corina/corina34_cracker 3.40 0067  02.08.2006

@<TRIPOS>MOLECULE
ASD04910408
  56   58    0    0    0
SMALL
NO_CHARGES


@<TRIPOS>ATOM
   1 C1            -1.6453     0.6177     1.3468 C.2     
   2 C2            -1.2801    -0.7095     0.8109 C.ar    
   3 C3             0.0579    -1.1231     0.7837 C.ar    
   4 C4             0.3467    -2.3754     0.2716 C.ar    
   5 C5            -0.6852    -3.1716    -0.1929 C.ar    
   6 N6            -1.9366    -2.7556    -0.1553 N.ar    
   7 C7            -2.2629    -1.5750     0.3282 C.ar    
   8 O8            -0.7821     1.3608     1.7689 O.2     
   9 O9            -2.9351     1.0062     1.3624 O.3     
  10 C10           -0.3744    -4.5363    -0.7515 C.3     
  11 C11           -1.1973    -5.5909    -0.0088 C.3     
  12 C12           -0.7855    -6.9861    -0.4829 C.3     
  13 C13            0.6629    -7.2576    -0.0715 C.3     
  14 N14           -0.7111    -4.5689    -2.1769 N.pl3   
  15 C15            1.4813    -3.7121    -2.7326 C.ar    
  16 C16            0.2094    -4.1084    -3.1235 C.ar    
  17 C17           -0.1379    -4.0417    -4.4713 C.ar    
  18 C18            0.8054    -3.5800    -5.3724 C.ar    
  19 C19            2.0581    -3.2011    -4.9072 C.ar    
  20 N20            2.3541    -3.2774    -3.6200 N.ar    
  21 N21            3.0188    -2.7328    -5.8109 N.pl3   
  22 N22            2.7622    -2.1060    -7.0373 N.2     
  23 C23            3.9087    -1.8132    -7.5957 C.2     
  24 C24            4.9348    -2.2421    -6.7466 C.2     
  25 C25            4.3659    -2.7998    -5.6528 C.2     
  26 C26            6.4133    -2.1027    -7.0027 C.3     
  27 F27            6.6157    -1.4704    -8.2342 F       
  28 F28            6.9928    -1.3376    -5.9849 F       
  29 F29            7.0040    -3.3706    -7.0269 F       
  30 C30            0.4776    -3.4900    -6.8406 C.3     
  31 C31           -1.7016    -8.0324     0.1548 C.3     
  32 C32           -3.2204     2.3231     1.9033 C.3     
  33 H33            0.8439    -0.4809     1.1528 H       
  34 H34            1.3669    -2.7278     0.2344 H       
  35 H35           -3.2994    -1.2718     0.3467 H       
  36 H36            0.6873    -4.7479    -0.6240 H       
  37 H37           -1.0177    -5.5035     1.0627 H       
  38 H38           -2.2566    -5.4355    -0.2135 H       
  39 H39           -0.8714    -7.0411    -1.5681 H       
  40 H40            0.7465    -7.2136     1.0144 H       
  41 H41            0.9598    -8.2472    -0.4189 H       
  42 H42            1.3142    -6.5056    -0.5168 H       
  43 H43           -1.5726    -4.9098    -2.4640 H       
  44 H44            1.7574    -3.7563    -1.6894 H       
  45 H45           -1.1198    -4.3435    -4.8048 H       
  46 H46            4.0405    -1.3238    -8.5493 H       
  47 H47            4.8886    -3.2237    -4.8082 H       
  48 H48            0.1609    -2.4750    -7.0806 H       
  49 H49            1.3614    -3.7429    -7.4263 H       
  50 H50           -0.3264    -4.1870    -7.0768 H       
  51 H51           -2.7335    -7.8390    -0.1383 H       
  52 H52           -1.4083    -9.0264    -0.1829 H       
  53 H53           -1.6158    -7.9774     1.2401 H       
  54 H54           -2.8880     2.3697     2.9404 H       
  55 H55           -2.6943     3.0778     1.3189 H       
  56 H56           -4.2932     2.5103     1.8569 H       
@<TRIPOS>BOND
   1    1    2 1
   2    1    8 2
   3    1    9 1
   4    2    3 ar
   5    2    7 ar
   6    3    4 ar
   7    3   33 1
   8    4    5 ar
   9    4   34 1
  10    5    6 ar
  11    5   10 1
  12    6    7 ar
  13    7   35 1
  14    9   32 1
  15   10   11 1
  16   10   14 1
  17   10   36 1
  18   11   12 1
  19   11   37 1
  20   11   38 1
  21   12   13 1
  22   12   31 1
  23   12   39 1
  24   13   40 1
  25   13   41 1
  26   13   42 1
  27   14   16 1
  28   14   43 1
  29   15   16 ar
  30   15   20 ar
  31   15   44 1
  32   16   17 ar
  33   17   18 ar
  34   17   45 1
  35   18   19 ar
  36   18   30 1
  37   19   20 ar
  38   19   21 1
  39   21   22 1
  40   21   25 1
  41   22   23 2
  42   23   24 1
  43   23   46 1
  44   24   25 2
  45   24   26 1
  46   25   47 1
  47   26   27 1
  48   26   28 1
  49   26   29 1
  50   30   48 1
  51   30   49 1
  52   30   50 1
  53   31   51 1
  54   31   52 1
  55   31   53 1
  56   32   54 1
  57   32   55 1
  58   32   56 1

#	End of record

