#	Name: ASD04880202
#	Creating user name:	WinNT
#	Creation time:	15. 06. 2019 20:53

#	Modifying user name:	WinNT
#	Modification time:	15. 06. 2019 20:53

#	Program:	/corina/corina34_cracker 3.40 0067  02.08.2006

@<TRIPOS>MOLECULE
ASD04880202
  40   42    0    0    0
SMALL
NO_CHARGES


@<TRIPOS>ATOM
   1 C1            -0.0161     1.4948     0.1078 C.3     
   2 C2             0.0063    -0.0449     0.0370 C.3     
   3 N3             1.4416    -0.3695     0.0293 N.am    
   4 N4             2.1720     0.8157     0.0875 N.2     
   5 C5             1.4458     1.8798     0.1328 C.2     
   6 C6             1.9609     3.2582     0.1984 C.ar    
   7 C7             1.9643    -1.6106    -0.0248 C.2     
   8 O8             1.2339    -2.5811     0.0336 O.2     
   9 C9             3.4253    -1.7921    -0.1551 C.ar    
  10 C10            4.2523    -0.6881    -0.3685 C.ar    
  11 C11            5.6156    -0.8630    -0.4896 C.ar    
  12 C12            6.1646    -2.1293    -0.4004 C.ar    
  13 C13            5.3502    -3.2307    -0.1891 C.ar    
  14 C14            3.9843    -3.0676    -0.0596 C.ar    
  15 F15            5.8933    -4.4647    -0.1035 F       
  16 C16            3.3368     3.4996     0.3239 C.ar    
  17 N17            3.7976     4.7370     0.3831 N.ar    
  18 C18            2.9899     5.7842     0.3267 C.ar    
  19 C19            1.6149     5.6233     0.2020 C.ar    
  20 C20            1.0848     4.3495     0.1306 C.ar    
  21 O21            4.2002     2.4564     0.3854 O.3     
  22 C22            5.5748     2.7651     0.6246 C.3     
  23 O23            3.5123     7.0340     0.3921 O.3     
  24 C24            4.9318     7.1380     0.5203 C.3     
  25 H25           -0.5060     1.9109    -0.7726 H       
  26 H26           -0.5150     1.8285     1.0176 H       
  27 H27           -0.4797    -0.4762     0.9121 H       
  28 H28           -0.4707    -0.3938    -0.8789 H       
  29 H29            3.8257     0.3016    -0.4392 H       
  30 H30            6.2556    -0.0089    -0.6547 H       
  31 H31            7.2323    -2.2605    -0.4962 H       
  32 H32            3.3498    -3.9259     0.1054 H       
  33 H33            0.9672     6.4863     0.1571 H       
  34 H34            0.0198     4.1985     0.0332 H       
  35 H35            6.1682     1.8529     0.5628 H       
  36 H36            5.9231     3.4765    -0.1243 H       
  37 H37            5.6817     3.2016     1.6177 H       
  38 H38            5.2514     6.6388     1.4350 H       
  39 H39            5.4097     6.6653    -0.3377 H       
  40 H40            5.2168     8.1893     0.5615 H       
@<TRIPOS>BOND
   1    1    2 1
   2    1    5 1
   3    1   25 1
   4    1   26 1
   5    2    3 1
   6    2   27 1
   7    2   28 1
   8    3    4 1
   9    3    7 am
  10    4    5 2
  11    5    6 1
  12    6   16 ar
  13    6   20 ar
  14    7    8 2
  15    7    9 1
  16    9   10 ar
  17    9   14 ar
  18   10   11 ar
  19   10   29 1
  20   11   12 ar
  21   11   30 1
  22   12   13 ar
  23   12   31 1
  24   13   14 ar
  25   13   15 1
  26   14   32 1
  27   16   17 ar
  28   16   21 1
  29   17   18 ar
  30   18   19 ar
  31   18   23 1
  32   19   20 ar
  33   19   33 1
  34   20   34 1
  35   21   22 1
  36   22   35 1
  37   22   36 1
  38   22   37 1
  39   23   24 1
  40   24   38 1
  41   24   39 1
  42   24   40 1

#	End of record

