#	Name: ASD01914186
#	Creating user name:	WinNT
#	Creation time:	15. 06. 2019 20:03

#	Modifying user name:	WinNT
#	Modification time:	15. 06. 2019 20:03

#	Program:	/corina/corina34_cracker 3.40 0067  02.08.2006

@<TRIPOS>MOLECULE
ASD01914186
  35   37    0    0    0
SMALL
NO_CHARGES


@<TRIPOS>ATOM
   1 C1            -0.0164     1.3559     0.0095 C.2     
   2 N2             0.0021    -0.0041     0.0020 N.pl3   
   3 C3             1.3268    -0.3969    -0.0127 C.ar    
   4 C4             2.0818     0.7881    -0.0136 C.ar    
   5 N5             1.1992     1.8199     0.0004 N.2     
   6 C6             3.4772     0.7150    -0.0269 C.ar    
   7 C7             4.0974    -0.5156    -0.0390 C.ar    
   8 C8             3.3452    -1.6838    -0.0386 C.ar    
   9 C9             1.9679    -1.6275    -0.0251 C.ar    
  10 C10           -1.2632     2.2022     0.0202 C.3     
  11 C11           -1.6781     2.4808     1.4663 C.3     
  12 C12           -2.8960     3.3074     1.4768 C.1     
  13 C13           -3.8674     3.9667     1.4852 C.1     
  14 C14           -5.0522     4.7709     1.4954 C.ar    
  15 C15           -5.6191     5.1532     2.7119 C.ar    
  16 C16           -6.7637     5.9301     2.7050 C.ar    
  17 C17           -7.3061     6.3008     1.4820 C.ar    
  18 C18           -6.6927     5.8869     0.3140 C.ar    
  19 N19           -5.6000     5.1518     0.3472 N.ar    
  20 C20           -1.1659    -0.8884     0.0091 C.3     
  21 F21            5.4465    -0.5866    -0.0519 F       
  22 H22            4.0673     1.6195    -0.0280 H       
  23 H23            3.8428    -2.6423    -0.0489 H       
  24 H24            1.3890    -2.5393    -0.0246 H       
  25 H25           -1.0666     3.1454    -0.4894 H       
  26 H26           -2.0662     1.6727    -0.4925 H       
  27 H27           -1.8748     1.5376     1.9760 H       
  28 H28           -0.8751     3.0103     1.9791 H       
  29 H29           -5.1708     4.8465     3.6454 H       
  30 H30           -7.2254     6.2411     3.6305 H       
  31 H31           -8.1992     6.9067     1.4433 H       
  32 H32           -7.1129     6.1737    -0.6386 H       
  33 H33           -1.4660    -1.1022    -1.0167 H       
  34 H34           -0.9131    -1.8200     0.5155 H       
  35 H35           -1.9875    -0.4010     0.5340 H       
@<TRIPOS>BOND
   1    1    2 1
   2    1    5 2
   3    1   10 1
   4    2    3 1
   5    2   20 1
   6    3    4 ar
   7    3    9 ar
   8    4    5 1
   9    4    6 ar
  10    6    7 ar
  11    6   22 1
  12    7    8 ar
  13    7   21 1
  14    8    9 ar
  15    8   23 1
  16    9   24 1
  17   10   11 1
  18   10   25 1
  19   10   26 1
  20   11   12 1
  21   11   27 1
  22   11   28 1
  23   12   13 3
  24   13   14 1
  25   14   15 ar
  26   14   19 ar
  27   15   16 ar
  28   15   29 1
  29   16   17 ar
  30   16   30 1
  31   17   18 ar
  32   17   31 1
  33   18   19 ar
  34   18   32 1
  35   20   33 1
  36   20   34 1
  37   20   35 1

#	End of record

