#	Name: ASD00842064
#	Creating user name:	WinNT
#	Creation time:	15. 06. 2019 18:43

#	Modifying user name:	WinNT
#	Modification time:	15. 06. 2019 18:43

#	Program:	/corina/corina34_cracker 3.40 0067  02.08.2006

@<TRIPOS>MOLECULE
ASD00842064
  94   99    0    0    0
SMALL
NO_CHARGES


@<TRIPOS>ATOM
   1 F1             6.1191    -1.6631    -1.9426 F       
   2 C2             1.0399     1.5645    -0.3466 C.ar    
   3 C3             1.3396     0.2352    -0.6061 C.ar    
   4 C4             1.2586    -0.7034     0.4126 C.ar    
   5 C5             0.8801    -0.3122     1.6820 C.ar    
   6 C6             0.5815     1.0136     1.9380 C.ar    
   7 C7             0.6618     1.9507     0.9249 C.ar    
   8 C8             1.5830    -2.1485     0.1341 C.3     
   9 C9             1.3027    -2.9996     1.3542 C.2     
  10 C10            0.7822    -2.6541    -1.0676 C.3     
  11 C11           -0.6870    -2.4212    -0.8261 C.2     
  12 N12           -1.5961    -2.8804    -1.7088 N.am    
  13 O13           -1.0513    -1.8206     0.1625 O.2     
  14 C14           -3.0249    -2.5686    -1.5521 C.3     
  15 C15           -3.5492    -2.0085    -2.8785 C.3     
  16 N16           -3.2338    -2.9487    -3.9623 N.3     
  17 C17           -1.7824    -3.1017    -4.1294 C.3     
  18 C18           -1.1850    -3.7016    -2.8576 C.3     
  19 C19           -3.8678    -2.5334    -5.2207 C.3     
  20 C20           -3.4179    -3.4627    -6.3514 C.3     
  21 C21           -4.1282    -3.0631    -7.6467 C.3     
  22 N22           -5.5815    -3.1589    -7.4591 N.3     
  23 C23           -6.0433    -2.2406    -6.4104 C.3     
  24 C24           -5.3901    -2.6156    -5.0782 C.3     
  25 C25           -6.2923    -2.9165    -8.7216 C.3     
  26 O26            0.2277    -3.1517     1.8949 O.2     
  27 N27            2.4684    -3.5554     1.7253 N.am    
  28 C28            3.0656    -2.3222    -0.1031 C.ar    
  29 C29            3.5228    -3.1783     0.8910 C.ar    
  30 C30            3.9274    -1.8151    -1.0493 C.ar    
  31 C31            5.2696    -2.1586    -1.0163 C.ar    
  32 C32            5.7373    -3.0117    -0.0297 C.ar    
  33 C33            4.8729    -3.5202     0.9194 C.ar    
  34 Cl34           7.4183    -3.4433     0.0135 Cl      
  35 C35            2.3747    -6.2118     2.4388 C.ar    
  36 C36            3.4434    -6.9584     1.9781 C.ar    
  37 C37            1.1025    -6.7533     2.4471 C.ar    
  38 C38            0.8962    -8.0422     1.9947 C.ar    
  39 C39            1.9669    -8.7933     1.5319 C.ar    
  40 C40            3.2423    -8.2476     1.5243 C.ar    
  41 O41            1.7666   -10.0617     1.0868 O.3     
  42 H42            4.4362    -6.5332     1.9727 H       
  43 C43            2.9148   -10.7760     0.6250 C.3     
  44 C44           -7.7718    -3.2665    -8.5492 C.3     
  45 C45           -8.5122    -3.0140    -9.8641 C.3     
  46 S46            2.6356    -4.5702     3.0232 S.o2    
  47 O47            3.9989    -4.4964     3.4172 O.2     
  48 O48            1.5562    -4.2804     3.9008 O.2     
  49 O49            1.7113    -0.1472    -1.8560 O.3     
  50 C50            2.2100     0.2644    -4.1847 C.3     
  51 C51            1.6643     0.8484    -2.8800 C.3     
  52 H52            1.1065     2.2977    -1.1368 H       
  53 H53            0.8170    -1.0424     2.4753 H       
  54 H54            0.2850     1.3173     2.9311 H       
  55 H55            0.4280     2.9855     1.1274 H       
  56 H56            1.0929    -2.1166    -1.9634 H       
  57 H57            0.9637    -3.7204    -1.2024 H       
  58 H58           -3.5718    -3.4761    -1.2962 H       
  59 H59           -3.1534    -1.8260    -0.7647 H       
  60 H60           -4.6292    -1.8751    -2.8155 H       
  61 H61           -3.0749    -1.0481    -3.0807 H       
  62 H62           -1.5811    -3.7612    -4.9736 H       
  63 H63           -1.3327    -2.1261    -4.3141 H       
  64 H64           -0.0976    -3.7106    -2.9329 H       
  65 H65           -1.5540    -4.7185    -2.7241 H       
  66 H66           -3.5777    -1.5089    -5.4539 H       
  67 H67           -2.3397    -3.3764    -6.4861 H       
  68 H68           -3.6725    -4.4921    -6.0994 H       
  69 H69           -3.8622    -2.0382    -7.9054 H       
  70 H70           -3.8209    -3.7319    -8.4506 H       
  71 H71           -5.7683    -1.2195    -6.6750 H       
  72 H72           -7.1269    -2.3120    -6.3165 H       
  73 H73           -5.6758    -3.6318    -4.8062 H       
  74 H74           -5.7210    -1.9242    -4.3033 H       
  75 H75           -6.1971    -1.8660    -8.9963 H       
  76 H76           -5.8611    -3.5378    -9.5065 H       
  77 H77            3.5579    -1.1509    -1.8165 H       
  78 H78            5.2443    -4.1847     1.6855 H       
  79 H79            0.2694    -6.1683     2.8078 H       
  80 H80           -0.0976    -8.4648     2.0017 H       
  81 H81            4.0774    -8.8305     1.1649 H       
  82 H82            3.3643   -10.2399    -0.2108 H       
  83 H83            3.6399   -10.8608     1.4344 H       
  84 H84            2.6160   -11.7723     0.2990 H       
  85 H85           -7.8670    -4.3170    -8.2745 H       
  86 H86           -8.2030    -2.6452    -7.7643 H       
  87 H87           -8.4169    -1.9635   -10.1388 H       
  88 H88           -8.0809    -3.6353   -10.6490 H       
  89 H89           -9.5661    -3.2633    -9.7413 H       
  90 H90            2.2559     1.0470    -4.9419 H       
  91 H91            3.2097    -0.1350    -4.0139 H       
  92 H92            1.5531    -0.5350    -4.5277 H       
  93 H93            0.6330     1.1685    -3.0285 H       
  94 H94            2.2711     1.7039    -2.5831 H       
@<TRIPOS>BOND
   1    1   31 1
   2    2    3 ar
   3    2    7 ar
   4    2   52 1
   5    3    4 ar
   6    3   49 1
   7    4    5 ar
   8    4    8 1
   9    5    6 ar
  10    5   53 1
  11    6    7 ar
  12    6   54 1
  13    7   55 1
  14    8    9 1
  15    8   10 1
  16    8   28 1
  17    9   26 2
  18    9   27 am
  19   10   11 1
  20   10   56 1
  21   10   57 1
  22   11   12 am
  23   11   13 2
  24   12   14 1
  25   12   18 1
  26   14   15 1
  27   14   58 1
  28   14   59 1
  29   15   16 1
  30   15   60 1
  31   15   61 1
  32   16   17 1
  33   16   19 1
  34   17   18 1
  35   17   62 1
  36   17   63 1
  37   18   64 1
  38   18   65 1
  39   19   20 1
  40   19   24 1
  41   19   66 1
  42   20   21 1
  43   20   67 1
  44   20   68 1
  45   21   22 1
  46   21   69 1
  47   21   70 1
  48   22   23 1
  49   22   25 1
  50   23   24 1
  51   23   71 1
  52   23   72 1
  53   24   73 1
  54   24   74 1
  55   25   44 1
  56   25   75 1
  57   25   76 1
  58   27   46 am
  59   27   29 1
  60   28   29 ar
  61   28   30 ar
  62   29   33 ar
  63   30   31 ar
  64   30   77 1
  65   31   32 ar
  66   32   33 ar
  67   32   34 1
  68   33   78 1
  69   35   36 ar
  70   35   37 ar
  71   35   46 1
  72   36   42 1
  73   36   40 ar
  74   37   38 ar
  75   37   79 1
  76   38   39 ar
  77   38   80 1
  78   39   40 ar
  79   39   41 1
  80   40   81 1
  81   41   43 1
  82   43   82 1
  83   43   83 1
  84   43   84 1
  85   44   45 1
  86   44   85 1
  87   44   86 1
  88   45   87 1
  89   45   88 1
  90   45   89 1
  91   46   47 2
  92   46   48 2
  93   49   51 1
  94   50   51 1
  95   50   90 1
  96   50   91 1
  97   50   92 1
  98   51   93 1
  99   51   94 1

#	End of record

