#	Name: ASD01883695
#	Creating user name:	WinNT
#	Creation time:	15. 06. 2019 19:46

#	Modifying user name:	WinNT
#	Modification time:	15. 06. 2019 19:46

#	Program:	/corina/corina34_cracker 3.40 0067  02.08.2006

@<TRIPOS>MOLECULE
ASD01883695
  49   51    0    0    0
SMALL
NO_CHARGES


@<TRIPOS>ATOM
   1 N1             0.0777     1.4104     0.6693 N.ar    
   2 C2             0.0570     0.0930     0.5985 C.ar    
   3 C3             1.2256    -0.6272     0.4624 C.ar    
   4 C4             2.4418     0.0592     0.3999 C.ar    
   5 C5             2.4174     1.4542     0.4786 C.ar    
   6 C6             1.2034     2.0959     0.6141 C.ar    
   7 C7             3.7237    -0.6736     0.2543 C.2     
   8 C8             3.8649    -2.0614     0.0670 C.2     
   9 C9             5.1936    -2.3355    -0.0208 C.2     
  10 N10            5.8670    -1.1617     0.1067 N.pl3   
  11 N11            4.9259    -0.1377     0.2722 N.2     
  12 C12            1.1630     3.5999     0.7002 C.3     
  13 C13            7.3221    -0.9959     0.0716 C.3     
  14 C14            7.7865    -0.8722    -1.3810 C.3     
  15 O15            7.2556     0.3261    -1.9504 O.3     
  16 N16            5.7625    -3.5927    -0.2073 N.pl3   
  17 C17            6.1901    -4.3374     0.8964 C.ar    
  18 C18            6.1416    -3.7845     2.1694 C.ar    
  19 C19            6.5641    -4.5221     3.2582 C.ar    
  20 C20            7.0356    -5.8117     3.0811 C.ar    
  21 C21            7.0849    -6.3652     1.8125 C.ar    
  22 C22            6.6587    -5.6335     0.7217 C.ar    
  23 C23            9.3151    -0.8244    -1.4255 C.3     
  24 F24            7.4487    -6.5312     4.1474 F       
  25 C25            7.5992    -7.7690     1.6230 C.3     
  26 F26            7.5529    -8.1033     0.2653 F       
  27 F27            8.9199    -7.8472     2.0778 F       
  28 F28            6.8022    -8.6598     2.3500 F       
  29 C29            5.9130    -4.1353    -1.5598 C.3     
  30 H30           -0.8875    -0.4285     0.6481 H       
  31 H31            1.2013    -1.7054     0.4055 H       
  32 H32            3.3352     2.0217     0.4341 H       
  33 H33            3.0613    -2.7802     0.0045 H       
  34 H34            1.2376     3.9063     1.7436 H       
  35 H35            1.9977     4.0186     0.1380 H       
  36 H36            0.2244     3.9627     0.2812 H       
  37 H37            7.5985    -0.0949     0.6193 H       
  38 H38            7.7977    -1.8616     0.5326 H       
  39 H39            7.4332    -1.7323    -1.9498 H       
  40 H40            7.5099     0.4697    -2.8722 H       
  41 H41            5.7742    -2.7784     2.3080 H       
  42 H42            6.5269    -4.0924     4.2483 H       
  43 H43            6.6970    -6.0657    -0.2673 H       
  44 H44            9.6684     0.0357    -0.8566 H       
  45 H45            9.7200    -1.7385    -0.9912 H       
  46 H46            9.6459    -0.7363    -2.4603 H       
  47 H47            6.9160    -3.9199    -1.9282 H       
  48 H48            5.7579    -5.2140    -1.5379 H       
  49 H49            5.1771    -3.6757    -2.2196 H       
@<TRIPOS>BOND
   1    1    2 ar
   2    1    6 ar
   3    2    3 ar
   4    2   30 1
   5    3    4 ar
   6    3   31 1
   7    4    5 ar
   8    4    7 1
   9    5    6 ar
  10    5   32 1
  11    6   12 1
  12    7    8 1
  13    7   11 2
  14    8    9 2
  15    8   33 1
  16    9   10 1
  17    9   16 1
  18   10   11 1
  19   10   13 1
  20   12   34 1
  21   12   35 1
  22   12   36 1
  23   13   14 1
  24   13   37 1
  25   13   38 1
  26   14   15 1
  27   14   23 1
  28   14   39 1
  29   15   40 1
  30   16   17 1
  31   16   29 1
  32   17   18 ar
  33   17   22 ar
  34   18   19 ar
  35   18   41 1
  36   19   20 ar
  37   19   42 1
  38   20   21 ar
  39   20   24 1
  40   21   22 ar
  41   21   25 1
  42   22   43 1
  43   23   44 1
  44   23   45 1
  45   23   46 1
  46   25   26 1
  47   25   27 1
  48   25   28 1
  49   29   47 1
  50   29   48 1
  51   29   49 1

#	End of record

