#	Name: ASD04880060
#	Creating user name:	WinNT
#	Creation time:	15. 06. 2019 20:52

#	Modifying user name:	WinNT
#	Modification time:	15. 06. 2019 20:52

#	Program:	/corina/corina34_cracker 3.40 0067  02.08.2006

@<TRIPOS>MOLECULE
ASD04880060
  48   51    0    0    0
SMALL
NO_CHARGES


@<TRIPOS>ATOM
   1 C1            -0.0163     1.3461     0.0580 C.2     
   2 N2            -0.0005     0.0024    -0.0019 N.am    
   3 C3             1.2595    -0.4654    -0.0531 C.2     
   4 C4             2.1906     0.6825    -0.0248 C.ar    
   5 C5             3.5687     0.8070    -0.0533 C.ar    
   6 C6             4.1486     2.0786    -0.0117 C.ar    
   7 C7             3.3419     3.2146     0.0586 C.ar    
   8 C8             1.9636     3.0917     0.0872 C.ar    
   9 C9             1.3808     1.8347     0.0458 C.ar    
  10 O10           -1.0103     2.0419     0.1083 O.2     
  11 O11            1.5790    -1.6356    -0.1122 O.2     
  12 C12           -1.1985    -0.8408    -0.0095 C.3     
  13 C13            5.6209     2.2197    -0.0418 C.2     
  14 O14            6.3277     1.2326     0.0248 O.2     
  15 N15            6.1788     3.4424    -0.1429 N.am    
  16 N16            5.4862     4.6355    -0.3383 N.2     
  17 C17            6.2413     5.6781    -0.4019 C.2     
  18 C18            7.6868     5.2653    -0.2394 C.3     
  19 C19            7.6183     3.7360    -0.0587 C.3     
  20 C20            5.7686     7.0597    -0.6030 C.ar    
  21 C21            4.4022     7.3196    -0.7415 C.ar    
  22 C22            3.9647     8.6167    -0.9298 C.ar    
  23 C23            4.8848     9.6621    -0.9818 C.ar    
  24 C24            6.2408     9.4046    -0.8448 C.ar    
  25 C25            6.6847     8.1133    -0.6499 C.ar    
  26 O26            4.4523    10.9373    -1.1675 O.3     
  27 C27            5.4489    11.9605    -1.2108 C.3     
  28 O28            2.6360     8.8731    -1.0649 O.3     
  29 C29            1.7496     7.7540    -1.0020 C.3     
  30 H30            4.1926    -0.0729    -0.1070 H       
  31 H31            3.7950     4.1944     0.0912 H       
  32 H32            1.3430     3.9739     0.1420 H       
  33 H33           -2.0866    -0.2108     0.0400 H       
  34 H34           -1.2219    -1.4305    -0.9259 H       
  35 H35           -1.1782    -1.5085     0.8518 H       
  36 H36            8.2604     5.5230    -1.1298 H       
  37 H37            8.1207     5.7325     0.6446 H       
  38 H38            8.0128     3.4451     0.9149 H       
  39 H39            8.1600     3.2322    -0.8592 H       
  40 H40            3.6902     6.5085    -0.7017 H       
  41 H41            6.9504    10.2177    -0.8861 H       
  42 H42            7.7407     7.9163    -0.5384 H       
  43 H43            6.1377    11.7623    -2.0320 H       
  44 H44            4.9701    12.9278    -1.3636 H       
  45 H45            5.9990    11.9720    -0.2699 H       
  46 H46            1.8558     7.2602    -0.0361 H       
  47 H47            0.7221     8.0970    -1.1237 H       
  48 H48            1.9947     7.0512    -1.7983 H       
@<TRIPOS>BOND
   1    1    2 am
   2    1    9 1
   3    1   10 2
   4    2    3 am
   5    2   12 1
   6    3    4 1
   7    3   11 2
   8    4    5 ar
   9    4    9 ar
  10    5    6 ar
  11    5   30 1
  12    6    7 ar
  13    6   13 1
  14    7    8 ar
  15    7   31 1
  16    8    9 ar
  17    8   32 1
  18   12   33 1
  19   12   34 1
  20   12   35 1
  21   13   14 2
  22   13   15 am
  23   15   16 1
  24   15   19 1
  25   16   17 2
  26   17   18 1
  27   17   20 1
  28   18   19 1
  29   18   36 1
  30   18   37 1
  31   19   38 1
  32   19   39 1
  33   20   21 ar
  34   20   25 ar
  35   21   22 ar
  36   21   40 1
  37   22   23 ar
  38   22   28 1
  39   23   24 ar
  40   23   26 1
  41   24   25 ar
  42   24   41 1
  43   25   42 1
  44   26   27 1
  45   27   43 1
  46   27   44 1
  47   27   45 1
  48   28   29 1
  49   29   46 1
  50   29   47 1
  51   29   48 1

#	End of record

