#	Name: ASD01881421
#	Creating user name:	WinNT
#	Creation time:	15. 06. 2019 19:42

#	Modifying user name:	WinNT
#	Modification time:	15. 06. 2019 19:42

#	Program:	/corina/corina34_cracker 3.40 0067  02.08.2006

@<TRIPOS>MOLECULE
ASD01881421
  50   53    0    0    0
SMALL
NO_CHARGES


@<TRIPOS>ATOM
   1 O1            -0.2422     1.7471     0.0621 O.3     
   2 F2            -5.4893    -2.1953    -1.0492 F       
   3 C3            -6.5251    -3.5400    -4.8900 C.ar    
   4 C4            -5.5482    -3.1555    -3.9957 C.ar    
   5 C5            -7.2090    -2.5832    -5.6275 C.ar    
   6 C6            -6.9120    -1.2347    -5.4673 C.ar    
   7 C7            -5.9360    -0.8437    -4.5745 C.ar    
   8 C8            -5.2472    -1.8035    -3.8321 C.ar    
   9 C9            -4.1988    -1.3874    -2.8719 C.2     
  10 C10           -4.3677    -1.6037    -1.5152 C.2     
  11 C11           -3.0106    -0.7700    -3.3332 C.2     
  12 C12           -2.0591    -0.3926    -2.4594 C.2     
  13 N13           -2.2186    -0.5970    -1.1182 N.pl3   
  14 C14           -3.3530    -1.1973    -0.6287 C.2     
  15 C15           -1.4437    -0.3256    -0.0323 C.2     
  16 N16           -2.0909    -0.7389     1.0270 N.2     
  17 N17           -3.2191    -1.2560     0.6874 N.2     
  18 C18           -0.0873     0.3308    -0.0475 C.3     
  19 Cl19          -7.7695    -0.0419    -6.3922 Cl      
  20 O20           -8.1705    -2.9656    -6.5081 O.3     
  21 C21           -7.8112    -3.1471    -7.8060 C.ar    
  22 C22            0.9911     2.4688     0.0572 C.3     
  23 C23            0.7058     3.9671     0.1788 C.3     
  24 C24           -6.5119    -2.8761    -8.2230 C.ar    
  25 C25           -6.1930    -3.0764    -9.5565 C.ar    
  26 C26           -7.1681    -3.5352   -10.4220 C.ar    
  27 N27           -8.3910    -3.7823    -9.9946 N.ar    
  28 C28           -8.7336    -3.6108    -8.7334 C.ar    
  29 C29           -6.8294    -3.7557   -11.8738 C.3     
  30 C30          -10.1451    -3.9079    -8.2970 C.3     
  31 H31           -6.7552    -4.5871    -5.0201 H       
  32 H32           -5.0170    -3.9007    -3.4222 H       
  33 H33           -5.7051     0.2040    -4.4504 H       
  34 H34           -2.8675    -0.6013    -4.3903 H       
  35 H35           -1.1574     0.0773    -2.8233 H       
  36 H36            0.4213     0.0921    -0.9816 H       
  37 H37            0.5034    -0.0361     0.7919 H       
  38 H38            1.6041     2.1463     0.8988 H       
  39 H39            1.5221     2.2745    -0.8746 H       
  40 H40            0.0927     4.2896    -0.6628 H       
  41 H41            0.1748     4.1614     1.1106 H       
  42 H42            1.6465     4.5176     0.1751 H       
  43 H43           -5.7700    -2.5180    -7.5245 H       
  44 H44           -5.1943    -2.8761    -9.9155 H       
  45 H45           -6.4781    -4.7780   -12.0137 H       
  46 H46           -7.7177    -3.5900   -12.4833 H       
  47 H47           -6.0473    -3.0585   -12.1743 H       
  48 H48          -10.2177    -4.9504    -7.9871 H       
  49 H49          -10.4107    -3.2610    -7.4609 H       
  50 H50          -10.8277    -3.7273    -9.1273 H       
@<TRIPOS>BOND
   1    1   18 1
   2    1   22 1
   3    2   10 1
   4    3    4 ar
   5    3    5 ar
   6    3   31 1
   7    4    8 ar
   8    4   32 1
   9    5    6 ar
  10    5   20 1
  11    6    7 ar
  12    6   19 1
  13    7    8 ar
  14    7   33 1
  15    8    9 1
  16    9   10 2
  17    9   11 1
  18   10   14 1
  19   11   12 2
  20   11   34 1
  21   12   13 1
  22   12   35 1
  23   13   14 1
  24   13   15 1
  25   14   17 2
  26   15   16 2
  27   15   18 1
  28   16   17 1
  29   18   36 1
  30   18   37 1
  31   20   21 1
  32   21   24 ar
  33   21   28 ar
  34   22   23 1
  35   22   38 1
  36   22   39 1
  37   23   40 1
  38   23   41 1
  39   23   42 1
  40   24   25 ar
  41   24   43 1
  42   25   26 ar
  43   25   44 1
  44   26   27 ar
  45   26   29 1
  46   27   28 ar
  47   28   30 1
  48   29   45 1
  49   29   46 1
  50   29   47 1
  51   30   48 1
  52   30   49 1
  53   30   50 1

#	End of record

