#	Name: ASD01913875
#	Creating user name:	WinNT
#	Creation time:	15. 06. 2019 20:02

#	Modifying user name:	WinNT
#	Modification time:	15. 06. 2019 20:02

#	Program:	/corina/corina34_cracker 3.40 0067  02.08.2006

@<TRIPOS>MOLECULE
ASD01913875
  52   55    0    0    0
SMALL
NO_CHARGES


@<TRIPOS>ATOM
   1 C1            -0.0173     1.4278     0.0099 C.ar    
   2 C2             0.0021    -0.0041     0.0020 C.1     
   3 C3             0.0180    -1.1779    -0.0044 C.1     
   4 C4             0.0374    -2.6098    -0.0123 C.ar    
   5 C5            -1.1615    -3.3383    -0.0048 C.ar    
   6 C6             0.1560    -5.3344    -0.0280 C.ar    
   7 N7             1.2706    -4.6189    -0.0411 N.ar    
   8 C8             1.2501    -3.3022    -0.0334 C.ar    
   9 C9            -1.0911    -4.7169    -0.0128 C.ar    
  10 C10            1.1812     2.1463     0.0023 C.ar    
  11 C11            1.1547     3.5252     0.0095 C.ar    
  12 C12           -1.2350     2.1134     0.0194 C.ar    
  13 C13           -0.0549     4.1972     0.0242 C.ar    
  14 C14           -1.2458     3.4925     0.0264 C.ar    
  15 N15            0.2331    -6.7250    -0.0369 N.am    
  16 C16           -0.8027    -7.6033    -0.1211 C.2     
  17 N17           -0.3984    -8.8751    -0.3865 N.am    
  18 C18            0.9937    -8.7733    -0.7928 C.3     
  19 C19            1.4368    -7.5361     0.0353 C.3     
  20 C20            1.9519    -9.8910    -0.4390 C.3     
  21 C21            3.3339    -9.4632    -0.9707 C.3     
  22 C22            3.7772    -8.1290    -0.3796 C.3     
  23 C23            2.7181    -7.0329    -0.5888 C.3     
  24 C24           -1.2012   -10.0963    -0.2838 C.3     
  25 C25           -1.6911   -10.2651     1.1557 C.3     
  26 O26           -1.9669    -7.2853     0.0259 O.2     
  27 C27           -2.4043    -9.9962    -1.2236 C.3     
  28 H28           -2.1160    -2.8330     0.0074 H       
  29 H29            2.1798    -2.7526    -0.0439 H       
  30 H30           -1.9938    -5.3097    -0.0070 H       
  31 H31            2.1260     1.6231    -0.0088 H       
  32 H32            2.0801     4.0818     0.0040 H       
  33 H33           -2.1652     1.5647     0.0208 H       
  34 H34           -0.0696     5.2771     0.0297 H       
  35 H35           -2.1861     4.0237     0.0375 H       
  36 H36            1.0541    -8.5454    -1.8570 H       
  37 H37            1.6171    -7.8289     1.0696 H       
  38 H38            1.9912   -10.0217     0.6424 H       
  39 H39            1.6377   -10.8185    -0.9178 H       
  40 H40            4.0665   -10.2276    -0.7119 H       
  41 H41            3.2849    -9.3725    -2.0558 H       
  42 H42            3.9579    -8.2566     0.6877 H       
  43 H43            4.7051    -7.8191    -0.8602 H       
  44 H44            2.5740    -6.8532    -1.6542 H       
  45 H45            3.0315    -6.1135    -0.0943 H       
  46 H46           -0.5922   -10.9560    -0.5635 H       
  47 H47           -2.3000    -9.4054     1.4354 H       
  48 H48           -2.2884   -11.1737     1.2321 H       
  49 H49           -0.8339   -10.3364     1.8253 H       
  50 H50           -2.0553    -9.8760    -2.2492 H       
  51 H51           -3.0016   -10.9048    -1.1473 H       
  52 H52           -3.0133    -9.1365    -0.9439 H       
@<TRIPOS>BOND
   1    1    2 1
   2    1   10 ar
   3    1   12 ar
   4    2    3 3
   5    3    4 1
   6    4    5 ar
   7    4    8 ar
   8    5    9 ar
   9    5   28 1
  10    6    7 ar
  11    6   15 1
  12    6    9 ar
  13    7    8 ar
  14    8   29 1
  15    9   30 1
  16   10   11 ar
  17   10   31 1
  18   11   13 ar
  19   11   32 1
  20   12   14 ar
  21   12   33 1
  22   13   14 ar
  23   13   34 1
  24   14   35 1
  25   15   16 am
  26   15   19 1
  27   16   17 am
  28   16   26 2
  29   17   18 1
  30   17   24 1
  31   18   19 1
  32   18   20 1
  33   18   36 1
  34   19   23 1
  35   19   37 1
  36   20   21 1
  37   20   38 1
  38   20   39 1
  39   21   22 1
  40   21   40 1
  41   21   41 1
  42   22   23 1
  43   22   42 1
  44   22   43 1
  45   23   44 1
  46   23   45 1
  47   24   25 1
  48   24   27 1
  49   24   46 1
  50   25   47 1
  51   25   48 1
  52   25   49 1
  53   27   50 1
  54   27   51 1
  55   27   52 1

#	End of record

