#	Name: ASD01916048
#	Creating user name:	WinNT
#	Creation time:	15. 06. 2019 20:06

#	Modifying user name:	WinNT
#	Modification time:	15. 06. 2019 20:06

#	Program:	/corina/corina34_cracker 3.40 0067  02.08.2006

@<TRIPOS>MOLECULE
ASD01916048
  47   49    0    0    0
SMALL
NO_CHARGES


@<TRIPOS>ATOM
   1 C1            -0.0313     1.4092    -0.2162 C.ar    
   2 C2            -0.0029     0.0132    -0.1015 C.ar    
   3 C3            -1.2080    -0.6643    -0.0235 C.ar    
   4 C4            -2.4019     0.0624    -0.0616 C.ar    
   5 C5            -3.6932    -0.6513     0.0210 C.2     
   6 N6            -4.8412     0.0444     0.1418 N.am    
   7 O7            -3.7200    -1.8660    -0.0201 O.2     
   8 C8             1.1878     2.1556    -0.3007 C.1     
   9 C9             2.1874     2.7675    -0.3700 C.1     
  10 C10            3.4065     3.5138    -0.4544 C.ar    
  11 C11            3.3707     4.9062    -0.5687 C.ar    
  12 C12            5.8093     3.5806    -0.4986 C.ar    
  13 C13            4.5485     5.6198    -0.6492 C.ar    
  14 N14           -2.3903     1.3872    -0.1707 N.ar    
  15 C15           -1.2701     2.0648    -0.2531 C.ar    
  16 C16            4.6378     2.8537    -0.4171 C.ar    
  17 C17            5.7644     4.9611    -0.6171 C.ar    
  18 C18           -6.1409    -0.6350     0.0545 C.3     
  19 C19           -4.8165     1.4957     0.3695 C.3     
  20 C20           -5.6565     1.8144     1.6103 C.3     
  21 C21           -7.0598     1.2293     1.4355 C.3     
  22 C22           -6.9634    -0.2880     1.2995 C.3     
  23 C23           -6.8828    -0.1640    -1.1980 C.3     
  24 C24           -5.9251    -2.1481    -0.0159 C.3     
  25 O25           -7.8560     1.5526     2.5773 O.3     
  26 F26            7.0010     2.9449    -0.4676 F       
  27 F27           -1.2298    -2.0105     0.0876 F       
  28 H28            0.9353    -0.5210    -0.0749 H       
  29 H29            2.4225     5.4227    -0.5943 H       
  30 H30            4.5211     6.6958    -0.7379 H       
  31 H31           -1.3022     3.1408    -0.3404 H       
  32 H32            4.6731     1.7782    -0.3244 H       
  33 H33            6.6832     5.5253    -0.6806 H       
  34 H34           -3.7893     1.8231     0.5297 H       
  35 H35           -5.2349     2.0086    -0.4965 H       
  36 H36           -5.1865     1.3757     2.4904 H       
  37 H37           -5.7259     2.8951     1.7349 H       
  38 H38           -7.5199     1.6500     0.5414 H       
  39 H39           -7.9639    -0.7086     1.1984 H       
  40 H40           -6.4817    -0.7028     2.1850 H       
  41 H41           -6.2902    -0.4005    -2.0817 H       
  42 H42           -7.8466    -0.6691    -1.2609 H       
  43 H43           -7.0400     0.9132    -1.1435 H       
  44 H44           -5.3283    -2.4701     0.8375 H       
  45 H45           -6.8903    -2.6541     0.0042 H       
  46 H46           -5.4029    -2.3980    -0.9394 H       
  47 H47           -7.9595     2.5021     2.7286 H       
@<TRIPOS>BOND
   1    1    2 ar
   2    1    8 1
   3    1   15 ar
   4    2    3 ar
   5    2   28 1
   6    3    4 ar
   7    3   27 1
   8    4   14 ar
   9    4    5 1
  10    5    6 am
  11    5    7 2
  12    6   19 1
  13    6   18 1
  14    8    9 3
  15    9   10 1
  16   10   11 ar
  17   10   16 ar
  18   11   13 ar
  19   11   29 1
  20   12   17 ar
  21   12   26 1
  22   12   16 ar
  23   13   17 ar
  24   13   30 1
  25   14   15 ar
  26   15   31 1
  27   16   32 1
  28   17   33 1
  29   18   23 1
  30   18   24 1
  31   18   22 1
  32   19   20 1
  33   19   34 1
  34   19   35 1
  35   20   21 1
  36   20   36 1
  37   20   37 1
  38   21   22 1
  39   21   25 1
  40   21   38 1
  41   22   39 1
  42   22   40 1
  43   23   41 1
  44   23   42 1
  45   23   43 1
  46   24   44 1
  47   24   45 1
  48   24   46 1
  49   25   47 1

#	End of record

