#	Name: ASD02038880
#	Creating user name:	WinNT
#	Creation time:	15. 06. 2019 20:17

#	Modifying user name:	WinNT
#	Modification time:	15. 06. 2019 20:17

#	Program:	/corina/corina34_cracker 3.40 0067  02.08.2006

@<TRIPOS>MOLECULE
ASD02038880
  73   75    0    0    0
SMALL
NO_CHARGES


@<TRIPOS>ATOM
   1 C1            -0.0040     1.3467    -0.3154 C.2     
   2 N2             0.0193     0.0302    -0.0277 N.am    
   3 O3             1.0320     1.9271    -0.6080 O.co2   
   4 O4            -1.0620     1.9598    -0.2887 O.co2   
   5 C5             1.8994    -0.4793    -1.4749 C.2     
   6 C6             1.2747    -0.7187    -0.1246 C.3     
   7 C7             2.2339    -0.2501     0.9714 C.3     
   8 O8             1.3501     0.2454    -2.2774 O.2     
   9 O9             2.6438     1.0924     0.7037 O.3     
  10 N10            3.0686    -1.0707    -1.7909 N.am    
  11 C11            3.7855    -0.9249    -3.0662 C.3     
  12 C12            5.0535    -1.8004    -2.9817 C.3     
  13 C13            4.6906    -2.8323    -1.8812 C.3     
  14 C14            3.8437    -1.9658    -0.9125 C.3     
  15 C15            2.9127    -1.3949    -4.2013 C.2     
  16 O16            1.7970    -1.8133    -3.9753 O.2     
  17 N17            3.3721    -1.3504    -5.4676 N.am    
  18 C18            2.6302    -1.7751    -6.6637 C.3     
  19 C19            3.5599    -1.5666    -7.8776 C.3     
  20 C20            4.9732    -1.5678    -7.2372 C.3     
  21 C21            4.6994    -0.8617    -5.8833 C.3     
  22 C22            2.2591    -3.2310    -6.5464 C.2     
  23 N23            1.5707    -3.8328    -7.5366 N.am    
  24 O24            2.5798    -3.8611    -5.5611 O.2     
  25 C25            1.0261    -5.8321    -8.7997 C.2     
  26 C26            1.2100    -5.2481    -7.4227 C.3     
  27 C27           -0.0947    -5.3800    -6.6344 C.3     
  28 C28            0.0524    -4.6772    -5.2834 C.3     
  29 O29            1.1806    -5.1373    -9.7761 O.2     
  30 O30           -1.1598    -4.7765    -7.3717 O.3     
  31 O31            0.6908    -7.1240    -8.9415 O.3     
  32 N32            0.5468    -7.5681   -10.1591 N.3     
  33 C33           -1.2108    -0.6520     0.3820 C.3     
  34 C34           -1.9176    -1.1879    -0.8364 C.ar    
  35 C35           -1.6375    -2.4621    -1.2933 C.ar    
  36 C36           -2.2858    -2.9537    -2.4109 C.ar    
  37 C37           -3.2145    -2.1712    -3.0712 C.ar    
  38 C38           -3.4953    -0.8973    -2.6138 C.ar    
  39 C39           -2.8501    -0.4073    -1.4936 C.ar    
  40 H40            1.0735    -1.7828    -0.0008 H       
  41 H41            1.7298    -0.2904     1.9370 H       
  42 H42            3.1087    -0.9001     0.9909 H       
  43 H43            3.2545     1.4554     1.3597 H       
  44 H44            4.0644     0.1179    -3.2175 H       
  45 H45            5.2411    -2.3001    -3.9321 H       
  46 H46            5.9149    -1.2037    -2.6819 H       
  47 H47            4.1024    -3.6522    -2.2931 H       
  48 H48            5.5866    -3.2066    -1.3859 H       
  49 H49            4.4907    -1.3851    -0.2550 H       
  50 H50            3.1741    -2.5961    -0.3273 H       
  51 H51            1.7312    -1.1692    -6.7768 H       
  52 H52            3.4574    -2.3875    -8.5874 H       
  53 H53            3.3559    -0.6106    -8.3599 H       
  54 H54            5.3324    -2.5857    -7.0852 H       
  55 H55            5.6760    -0.9932    -7.8405 H       
  56 H56            4.6815     0.2203    -6.0140 H       
  57 H57            5.4545    -1.1436    -5.1495 H       
  58 H58            1.3142    -3.3288    -8.3247 H       
  59 H59            2.0040    -5.7848    -6.9035 H       
  60 H60           -0.3166    -6.4349    -6.4730 H       
  61 H61            0.2744    -3.6223    -5.4448 H       
  62 H62           -0.8770    -4.7712    -4.7218 H       
  63 H63            0.8648    -5.1375    -4.7210 H       
  64 H64           -1.0293    -3.8355    -7.5523 H       
  65 H65            0.2957    -8.5454   -10.1603 H       
  66 H66           -0.1318    -7.0198   -10.6661 H       
  67 H67           -0.9636    -1.4765     1.0507 H       
  68 H68           -1.8620     0.0526     0.8992 H       
  69 H69           -0.9119    -3.0735    -0.7774 H       
  70 H70           -2.0665    -3.9489    -2.7683 H       
  71 H71           -3.7205    -2.5549    -3.9448 H       
  72 H72           -4.2206    -0.2858    -3.1299 H       
  73 H73           -3.0722     0.5865    -1.1341 H       
@<TRIPOS>BOND
   1    1    2 am
   2    1    3 ar
   3    1    4 ar
   4    2    6 1
   5    2   33 1
   6    5    6 1
   7    5    8 2
   8    5   10 am
   9    6    7 1
  10    6   40 1
  11    7    9 1
  12    7   41 1
  13    7   42 1
  14    9   43 1
  15   10   11 1
  16   10   14 1
  17   11   12 1
  18   11   15 1
  19   11   44 1
  20   12   13 1
  21   12   45 1
  22   12   46 1
  23   13   14 1
  24   13   47 1
  25   13   48 1
  26   14   49 1
  27   14   50 1
  28   15   16 2
  29   15   17 am
  30   17   18 1
  31   17   21 1
  32   18   19 1
  33   18   22 1
  34   18   51 1
  35   19   20 1
  36   19   52 1
  37   19   53 1
  38   20   21 1
  39   20   54 1
  40   20   55 1
  41   21   56 1
  42   21   57 1
  43   22   23 am
  44   22   24 2
  45   23   26 1
  46   23   58 1
  47   25   29 2
  48   25   31 1
  49   25   26 1
  50   26   27 1
  51   26   59 1
  52   27   28 1
  53   27   30 1
  54   27   60 1
  55   28   61 1
  56   28   62 1
  57   28   63 1
  58   30   64 1
  59   31   32 1
  60   32   65 1
  61   32   66 1
  62   33   34 1
  63   33   67 1
  64   33   68 1
  65   34   35 ar
  66   34   39 ar
  67   35   36 ar
  68   35   69 1
  69   36   37 ar
  70   36   70 1
  71   37   38 ar
  72   37   71 1
  73   38   39 ar
  74   38   72 1
  75   39   73 1

#	End of record

