#	Name: ASD01913612
#	Creating user name:	WinNT
#	Creation time:	15. 06. 2019 20:01

#	Modifying user name:	WinNT
#	Modification time:	15. 06. 2019 20:01

#	Program:	/corina/corina34_cracker 3.40 0067  02.08.2006

@<TRIPOS>MOLECULE
ASD01913612
  63   67    0    0    0
SMALL
NO_CHARGES


@<TRIPOS>ATOM
   1 C1             0.0890     1.4554     0.3119 C.ar    
   2 C2             0.0485    -0.0127     0.1330 C.2     
   3 N3            -1.0124    -0.8155     0.3819 N.pl3   
   4 N4            -0.6022    -2.1226     0.0736 N.2     
   5 C5             0.6466    -2.0460    -0.3331 C.2     
   6 N6             1.0362    -0.7667    -0.3016 N.2     
   7 C7             1.4853    -3.1923    -0.7633 C.ar    
   8 C8             2.7998    -2.9810    -1.1743 C.ar    
   9 C9             3.5761    -4.0496    -1.5730 C.ar    
  10 C10            3.0504    -5.3315    -1.5650 C.ar    
  11 C11            1.7437    -5.5461    -1.1575 C.ar    
  12 C12            0.9622    -4.4838    -0.7518 C.ar    
  13 C13           -2.3283    -0.4024     0.8757 C.3     
  14 C14           -3.2439    -0.1410    -0.2924 C.2     
  15 N15           -4.5146     0.2533    -0.0776 N.am    
  16 O16           -2.8371    -0.2855    -1.4259 O.2     
  17 C17           -5.3714     0.4969    -1.2339 C.3     
  18 C18            1.3141     2.1125     0.4305 C.ar    
  19 C19            1.3464     3.4813     0.5966 C.ar    
  20 C20            0.1648     4.2038     0.6459 C.ar    
  21 C21           -1.0546     3.5557     0.5291 C.ar    
  22 C22           -1.0976     2.1880     0.3569 C.ar    
  23 F23            3.8140    -6.3751    -1.9561 F       
  24 F24            0.2018     5.5444     0.8088 F       
  25 C25           -6.5190    -0.5188    -1.2511 C.3     
  26 C26           -7.5927    -0.0525    -0.2932 C.ar    
  27 C27           -7.3770    -0.0954     1.0619 C.ar    
  28 C28           -6.0643    -0.6101     1.6093 C.3     
  29 C29           -4.9697     0.4108     1.3003 C.3     
  30 C30           -8.7945     0.4167    -0.7959 C.ar    
  31 C31           -9.7837     0.8459     0.0740 C.ar    
  32 C32           -9.5646     0.8034     1.4480 C.ar    
  33 C33           -8.3587     0.3313     1.9403 C.ar    
  34 O34          -10.9660     1.3083    -0.4134 O.3     
  35 C35          -11.1206     1.3236    -1.8340 C.3     
  36 O36          -10.5327     1.2240     2.3055 O.3     
  37 C37          -10.2384     1.1518     3.7020 C.3     
  38 H38            3.2102    -1.9820    -1.1812 H       
  39 H39            4.5950    -3.8866    -1.8920 H       
  40 H40            1.3377    -6.5468    -1.1531 H       
  41 H41           -0.0563    -4.6519    -0.4343 H       
  42 H42           -2.7483    -1.1939     1.4965 H       
  43 H43           -2.2253     0.5073     1.4672 H       
  44 H44           -5.7808     1.5054    -1.1758 H       
  45 H45           -4.7849     0.3967    -2.1472 H       
  46 H46            2.2354     1.5503     0.3925 H       
  47 H47            2.2942     3.9908     0.6888 H       
  48 H48           -1.9727     4.1232     0.5685 H       
  49 H49           -2.0483     1.6839     0.2656 H       
  50 H50           -6.9316    -0.5874    -2.2577 H       
  51 H51           -6.1482    -1.4948    -0.9380 H       
  52 H52           -6.1456    -0.7451     2.6879 H       
  53 H53           -5.8187    -1.5612     1.1368 H       
  54 H54           -4.1303     0.2588     1.9788 H       
  55 H55           -5.3650     1.4177     1.4338 H       
  56 H56           -8.9601     0.4484    -1.8627 H       
  57 H57           -8.1847     0.2967     3.0056 H       
  58 H58          -12.1060     1.7140    -2.0881 H       
  59 H59          -10.3530     1.9589    -2.2761 H       
  60 H60          -11.0205     0.3097    -2.2213 H       
  61 H61           -9.3654     1.7664     3.9216 H       
  62 H62          -11.0925     1.5166     4.2727 H       
  63 H63          -10.0329     0.1173     3.9770 H       
@<TRIPOS>BOND
   1    1    2 1
   2    1   18 ar
   3    1   22 ar
   4    2    3 1
   5    2    6 2
   6    3    4 1
   7    3   13 1
   8    4    5 2
   9    5    6 1
  10    5    7 1
  11    7    8 ar
  12    7   12 ar
  13    8    9 ar
  14    8   38 1
  15    9   10 ar
  16    9   39 1
  17   10   11 ar
  18   10   23 1
  19   11   12 ar
  20   11   40 1
  21   12   41 1
  22   13   14 1
  23   13   42 1
  24   13   43 1
  25   14   15 am
  26   14   16 2
  27   15   17 1
  28   15   29 1
  29   17   25 1
  30   17   44 1
  31   17   45 1
  32   18   19 ar
  33   18   46 1
  34   19   20 ar
  35   19   47 1
  36   20   21 ar
  37   20   24 1
  38   21   22 ar
  39   21   48 1
  40   22   49 1
  41   25   26 1
  42   25   50 1
  43   25   51 1
  44   26   27 ar
  45   26   30 ar
  46   27   28 1
  47   27   33 ar
  48   28   29 1
  49   28   52 1
  50   28   53 1
  51   29   54 1
  52   29   55 1
  53   30   31 ar
  54   30   56 1
  55   31   32 ar
  56   31   34 1
  57   32   33 ar
  58   32   36 1
  59   33   57 1
  60   34   35 1
  61   35   58 1
  62   35   59 1
  63   35   60 1
  64   36   37 1
  65   37   61 1
  66   37   62 1
  67   37   63 1

#	End of record

