#	Name: ASD01812846
#	Creating user name:	WinNT
#	Creation time:	15. 06. 2019 19:29

#	Modifying user name:	WinNT
#	Modification time:	15. 06. 2019 19:29

#	Program:	/corina/corina34_cracker 3.40 0067  02.08.2006

@<TRIPOS>MOLECULE
ASD01812846
  48   52    0    0    0
SMALL
NO_CHARGES


@<TRIPOS>ATOM
   1 N1            -0.0158     1.3130     0.0093 N.ar    
   2 C2             0.0021    -0.0041     0.0020 C.ar    
   3 N3             1.1297    -0.6935    -0.0125 N.ar    
   4 C4             2.2939    -0.0791    -0.0203 C.ar    
   5 C5             2.3345     1.3180    -0.0132 C.ar    
   6 C6             1.1137     2.0142     0.0022 C.ar    
   7 C7             3.7270    -0.5440    -0.0364 C.3     
   8 N8             4.5519     0.6704    -0.0378 N.am    
   9 C9             3.7404     1.7431    -0.0243 C.2     
  10 C10            6.0164     0.7078    -0.0516 C.3     
  11 C11            6.5050     0.7283    -1.4770 C.ar    
  12 C12            6.6978     1.9365    -2.1221 C.ar    
  13 C13            7.1452     1.9610    -3.4276 C.ar    
  14 C14            7.4025     0.7658    -4.0956 C.ar    
  15 C15            7.2066    -0.4483    -3.4411 C.ar    
  16 C16            6.7643    -0.4611    -2.1337 C.ar    
  17 O17            1.0885     3.3666     0.0093 O.3     
  18 O18            4.1168     2.8993    -0.0220 O.2     
  19 C19           -0.1242     3.9827     0.0237 C.ar    
  20 C20           -0.7328     4.2915     1.2329 C.ar    
  21 C21           -1.9661     4.9186     1.2453 C.ar    
  22 C22           -2.5935     5.2378     0.0532 C.ar    
  23 C23           -1.9885     4.9307    -1.1537 C.ar    
  24 C24           -0.7526     4.3088    -1.1706 C.ar    
  25 F25           -3.7981     5.8493     0.0675 F       
  26 F26           -0.1603     4.0141    -2.3485 F       
  27 F27           -0.1213     3.9795     2.3965 F       
  28 C28            8.1768    -0.2939    -6.2813 C.2     
  29 C29            7.8833     0.7860    -5.4999 C.2     
  30 N30            8.1166     1.8721    -6.2583 N.2     
  31 N31            8.5223     1.4888    -7.4170 N.2     
  32 N32            8.5729     0.2045    -7.4741 N.pl3   
  33 C33            8.9891    -0.5848    -8.6360 C.3     
  34 H34           -0.9363    -0.5387     0.0085 H       
  35 H35            3.9379    -1.1392     0.8520 H       
  36 H36            3.9209    -1.1296    -0.9351 H       
  37 H37            6.3618     1.6040     0.4638 H       
  38 H38            6.4072    -0.1753     0.4538 H       
  39 H39            6.4977     2.8624    -1.6034 H       
  40 H40            7.2951     2.9049    -3.9305 H       
  41 H41            7.4043    -1.3777    -3.9545 H       
  42 H42            6.6166    -1.4017    -1.6238 H       
  43 H43           -2.4398     5.1590     2.1857 H       
  44 H44           -2.4797     5.1806    -2.0825 H       
  45 H45            8.1106    -1.3351    -6.0020 H       
  46 H46            8.1202    -0.8037    -9.2567 H       
  47 H47            9.7176    -0.0195    -9.2172 H       
  48 H48            9.4391    -1.5185    -8.2986 H       
@<TRIPOS>BOND
   1    1    2 ar
   2    1    6 ar
   3    2    3 ar
   4    2   34 1
   5    3    4 ar
   6    4    7 1
   7    4    5 ar
   8    5    6 ar
   9    5    9 1
  10    6   17 1
  11    7    8 1
  12    7   35 1
  13    7   36 1
  14    8    9 am
  15    8   10 1
  16    9   18 2
  17   10   11 1
  18   10   37 1
  19   10   38 1
  20   11   12 ar
  21   11   16 ar
  22   12   13 ar
  23   12   39 1
  24   13   14 ar
  25   13   40 1
  26   14   15 ar
  27   14   29 1
  28   15   16 ar
  29   15   41 1
  30   16   42 1
  31   17   19 1
  32   19   20 ar
  33   19   24 ar
  34   20   21 ar
  35   20   27 1
  36   21   22 ar
  37   21   43 1
  38   22   23 ar
  39   22   25 1
  40   23   24 ar
  41   23   44 1
  42   24   26 1
  43   28   29 2
  44   28   32 1
  45   28   45 1
  46   29   30 1
  47   30   31 2
  48   31   32 1
  49   32   33 1
  50   33   46 1
  51   33   47 1
  52   33   48 1

#	End of record

