#	Name: ASD02030272
#	Creating user name:	WinNT
#	Creation time:	15. 06. 2019 20:14

#	Modifying user name:	WinNT
#	Modification time:	15. 06. 2019 20:14

#	Program:	/corina/corina34_cracker 3.40 0067  02.08.2006

@<TRIPOS>MOLECULE
ASD02030272
  61   65    0    0    0
SMALL
NO_CHARGES


@<TRIPOS>ATOM
   1 N1             0.4691     1.0688     4.3406 N.am    
   2 C2             0.4817    -0.3405     3.9240 C.3     
   3 C3            -0.9594    -0.8653     3.9269 C.3     
   4 N4            -1.8062     0.0834     3.1903 N.am    
   5 C5            -1.8189     1.4927     3.6069 C.3     
   6 C6            -0.3820     2.0165     3.6075 C.3     
   7 C7             1.2202     1.4836     5.3799 C.2     
   8 C8             1.3297     2.9263     5.6835 C.2     
   9 N9             2.0323     3.4605     6.6591 N.2     
  10 N10            0.7329     3.9249     5.0071 N.2     
  11 C11            1.0784     5.0471     5.5852 C.2     
  12 N12            1.8914     4.7407     6.6169 N.pl3   
  13 C13            2.4822     5.6592     7.4951 C.ar    
  14 O14            1.8078     0.6715     6.0676 O.2     
  15 C15           -2.5574    -0.3314     2.1510 C.2     
  16 C16           -3.0787    -1.7053     2.1232 C.2     
  17 O17           -2.8040     0.4314     1.2360 O.2     
  18 C18            3.3031     5.2114     8.5213 C.ar    
  19 C19            3.8839     6.1193     9.3854 C.ar    
  20 C20            3.6484     7.4727     9.2291 C.ar    
  21 C21            2.8307     7.9218     8.2081 C.ar    
  22 C22            2.2521     7.0196     7.3373 C.ar    
  23 C23           -4.3475    -2.0665     2.4458 C.2     
  24 C24            4.7747     5.6340    10.4998 C.3     
  25 C25           -1.0088    -2.2341     3.2451 C.3     
  26 C26           -2.6649     2.3099     2.6285 C.3     
  27 C27           -4.4118    -3.5175     2.2741 C.ar    
  28 C28           -3.1286    -3.9084     1.8487 C.ar    
  29 O29           -2.3704    -2.7976     1.7677 O.3     
  30 C30           -5.4632    -1.1565     2.8909 C.3     
  31 C31           -5.4161    -4.4741     2.4414 C.ar    
  32 C32           -5.1463    -5.7906     2.1900 C.ar    
  33 C33           -3.8808    -6.1816     1.7702 C.ar    
  34 C34           -2.8778    -5.2527     1.5985 C.ar    
  35 Cl35          -6.3925    -6.9813     2.3971 Cl      
  36 H36            0.8985    -0.4215     2.9201 H       
  37 H37            1.0844    -0.9226     4.6211 H       
  38 H38           -1.3150    -0.9522     4.9536 H       
  39 H39           -2.2356     1.5737     4.6108 H       
  40 H40           -0.3483     2.9916     4.0934 H       
  41 H41           -0.0240     2.1036     2.5817 H       
  42 H42            0.7704     6.0387     5.2884 H       
  43 H43            3.4871     4.1543     8.6441 H       
  44 H44            4.1036     8.1805     9.9059 H       
  45 H45            2.6481     8.9796     8.0890 H       
  46 H46            1.6137     7.3710     6.5402 H       
  47 H47            5.8049     5.5868    10.1470 H       
  48 H48            4.7103     6.3225    11.3424 H       
  49 H49            4.4531     4.6417    10.8161 H       
  50 H50           -0.2829    -2.8994     3.7128 H       
  51 H51           -2.0083    -2.6561     3.3494 H       
  52 H52           -0.7702    -2.1220     2.1875 H       
  53 H53           -3.6504     1.8543     2.5320 H       
  54 H54           -2.7705     3.3283     3.0022 H       
  55 H55           -2.1766     2.3291     1.6542 H       
  56 H56           -6.0180    -0.8087     2.0195 H       
  57 H57           -6.1341    -1.7020     3.5547 H       
  58 H58           -5.0447    -0.3007     3.4205 H       
  59 H59           -6.4011    -4.1751     2.7682 H       
  60 H60           -3.6814    -7.2251     1.5759 H       
  61 H61           -1.8981    -5.5685     1.2713 H       
@<TRIPOS>BOND
   1    1    2 1
   2    1    7 am
   3    1    6 1
   4    2    3 1
   5    2   36 1
   6    2   37 1
   7    3    4 1
   8    3   25 1
   9    3   38 1
  10    4    5 1
  11    4   15 am
  12    5    6 1
  13    5   26 1
  14    5   39 1
  15    6   40 1
  16    6   41 1
  17    7    8 1
  18    7   14 2
  19    8    9 2
  20    8   10 1
  21    9   12 1
  22   10   11 2
  23   11   12 1
  24   11   42 1
  25   12   13 1
  26   13   18 ar
  27   13   22 ar
  28   15   16 1
  29   15   17 2
  30   16   23 2
  31   16   29 1
  32   18   19 ar
  33   18   43 1
  34   19   20 ar
  35   19   24 1
  36   20   21 ar
  37   20   44 1
  38   21   22 ar
  39   21   45 1
  40   22   46 1
  41   23   27 1
  42   23   30 1
  43   24   47 1
  44   24   48 1
  45   24   49 1
  46   25   50 1
  47   25   51 1
  48   25   52 1
  49   26   53 1
  50   26   54 1
  51   26   55 1
  52   27   28 ar
  53   27   31 ar
  54   28   29 1
  55   28   34 ar
  56   30   56 1
  57   30   57 1
  58   30   58 1
  59   31   32 ar
  60   31   59 1
  61   32   33 ar
  62   32   35 1
  63   33   34 ar
  64   33   60 1
  65   34   61 1

#	End of record

