#	Name: ASD08150222
#	Creating user name:	WinNT
#	Creation time:	15. 06. 2019 21:15

#	Modifying user name:	WinNT
#	Modification time:	15. 06. 2019 21:15

#	Program:	/corina/corina34_cracker 3.40 0067  02.08.2006

@<TRIPOS>MOLECULE
ASD08150222
  55   59    0    0    0
SMALL
NO_CHARGES


@<TRIPOS>ATOM
   1 N1             0.6931     1.0091    -0.0239 N.2     
   2 C2             0.4883    -0.2551     0.1895 C.2     
   3 N3             1.4884    -1.1422     0.4425 N.am    
   4 C4             2.7778    -0.7328     0.4837 C.2     
   5 C5             3.0431     0.6934     0.2459 C.ar    
   6 C6             4.3348     1.2160     0.2669 C.ar    
   7 C7             4.5267     2.5608     0.0379 C.ar    
   8 C8             3.4457     3.3960    -0.2128 C.ar    
   9 C9             2.1618     2.8997    -0.2380 C.ar    
  10 C10            1.9413     1.5399    -0.0088 C.ar    
  11 O11            3.6826    -1.5153     0.7092 O.2     
  12 C12            1.1809    -2.4907     0.6626 C.ar    
  13 C13            0.9703    -2.9545     1.9547 C.ar    
  14 C14            0.5734    -5.1548     1.0976 C.ar    
  15 C15            1.0802    -3.3655    -0.4108 C.ar    
  16 C16            0.6674    -4.2847     2.1685 C.ar    
  17 C17            0.7768    -4.6950    -0.1904 C.ar    
  18 C18            1.0730    -2.0072     3.1222 C.3     
  19 C19            5.5131     0.3167     0.5388 C.3     
  20 C20           -0.9292    -0.7657     0.1560 C.3     
  21 C21           -1.8986     0.4129     0.2654 C.3     
  22 C22           -3.3325    -0.1129     0.3568 C.3     
  23 N23           -1.1630    -1.4749    -1.1044 N.pl3   
  24 N24           -1.8297    -3.1127    -3.6179 N.2     
  25 C25           -2.3773    -4.0310    -4.3595 C.2     
  26 N26           -3.2028    -4.8095    -3.6030 N.pl3   
  27 C27           -3.1536    -4.3330    -2.3175 C.ar    
  28 N28           -3.7282    -4.6735    -1.1683 N.ar    
  29 C29           -3.4724    -3.9996    -0.0638 C.ar    
  30 N30           -2.6459    -2.9674    -0.0390 N.ar    
  31 C31           -2.0264    -2.5557    -1.1403 C.ar    
  32 C32           -2.2676    -3.2429    -2.3419 C.ar    
  33 F33           -4.0767    -4.3775     1.0839 F       
  34 H34            5.5264     2.9693     0.0539 H       
  35 H35            3.6143     4.4479    -0.3899 H       
  36 H36            1.3290     3.5589    -0.4337 H       
  37 H37            0.3367    -6.1948     1.2674 H       
  38 H38            1.2387    -3.0069    -1.4171 H       
  39 H39            0.5039    -4.6460     3.1730 H       
  40 H40            0.7032    -5.3770    -1.0246 H       
  41 H41            0.0964    -1.5642     3.3176 H       
  42 H42            1.4075    -2.5528     4.0045 H       
  43 H43            1.7892    -1.2194     2.8890 H       
  44 H44            5.8169    -0.1736    -0.3861 H       
  45 H45            6.3419     0.9103     0.9246 H       
  46 H46            5.2327    -0.4372     1.2744 H       
  47 H47           -1.0898    -1.4471     0.9915 H       
  48 H48           -1.6665     0.9925     1.1589 H       
  49 H49           -1.7998     1.0476    -0.6152 H       
  50 H50           -3.5646    -0.6925    -0.5366 H       
  51 H51           -3.4313    -0.7476     1.2375 H       
  52 H52           -4.0231     0.7268     0.4348 H       
  53 H53           -0.7126    -1.1869    -1.9138 H       
  54 H54           -2.2040    -4.1576    -5.4180 H       
  55 H55           -3.7287    -5.5618    -3.9165 H       
@<TRIPOS>BOND
   1    1    2 2
   2    1   10 1
   3    2    3 1
   4    2   20 1
   5    3    4 am
   6    3   12 1
   7    4    5 1
   8    4   11 2
   9    5    6 ar
  10    5   10 ar
  11    6    7 ar
  12    6   19 1
  13    7    8 ar
  14    7   34 1
  15    8    9 ar
  16    8   35 1
  17    9   10 ar
  18    9   36 1
  19   12   13 ar
  20   12   15 ar
  21   13   16 ar
  22   13   18 1
  23   14   16 ar
  24   14   17 ar
  25   14   37 1
  26   15   17 ar
  27   15   38 1
  28   16   39 1
  29   17   40 1
  30   18   41 1
  31   18   42 1
  32   18   43 1
  33   19   44 1
  34   19   45 1
  35   19   46 1
  36   20   21 1
  37   20   23 1
  38   20   47 1
  39   21   22 1
  40   21   48 1
  41   21   49 1
  42   22   50 1
  43   22   51 1
  44   22   52 1
  45   23   31 1
  46   23   53 1
  47   24   25 2
  48   24   32 1
  49   25   26 1
  50   25   54 1
  51   26   27 1
  52   26   55 1
  53   27   28 ar
  54   27   32 ar
  55   28   29 ar
  56   29   30 ar
  57   29   33 1
  58   30   31 ar
  59   31   32 ar

#	End of record

