#	Name: ASD01510086
#	Creating user name:	WinNT
#	Creation time:	15. 06. 2019 19:21

#	Modifying user name:	WinNT
#	Modification time:	15. 06. 2019 19:21

#	Program:	/corina/corina34_cracker 3.40 0067  02.08.2006

@<TRIPOS>MOLECULE
ASD01510086
  53   56    0    0    0
SMALL
NO_CHARGES


@<TRIPOS>ATOM
   1 C1            -0.0075     1.4646    -0.0234 C.3     
   2 N2             0.0121    -0.0043    -0.0301 N.3     
   3 C3             0.7110    -0.5270     1.1522 C.3     
   4 C4             0.6404    -2.0559     1.1487 C.3     
   5 N5             1.2469    -2.5689    -0.0877 N.3     
   6 C6             0.5480    -2.0461    -1.2700 C.3     
   7 C7             0.6186    -0.5172    -1.2665 C.3     
   8 C8             1.2654    -3.9554    -0.0940 C.ar    
   9 N9             1.7795    -4.5886    -1.1375 N.ar    
  10 C10            1.8146    -5.9101    -1.1783 C.ar    
  11 C11            2.4019    -6.6220    -2.3697 C.3     
  12 C12            1.3020    -6.6346    -0.1058 C.ar    
  13 C13            0.7699    -5.9339     0.9730 C.ar    
  14 N14            0.7735    -4.6115     0.9460 N.ar    
  15 C15            0.2024    -6.6720     2.1579 C.3     
  16 S16            1.3255    -8.3965    -0.1139 S.3     
  17 C17            2.8905    -8.6850     0.6425 C.ar    
  18 N18            3.6301    -7.6494     1.0129 N.ar    
  19 C19            4.8116    -7.8269     1.5843 C.ar    
  20 C20            5.2745    -9.1121     1.7948 C.ar    
  21 C21            4.4735   -10.1826     1.3942 C.ar    
  22 N22            3.2966    -9.9322     0.8319 N.ar    
  23 N23            4.8991   -11.4923     1.5858 N.am    
  24 C24            4.0762   -12.5182     1.2915 C.2     
  25 O25            2.9336   -12.2999     0.9489 O.2     
  26 C26            4.5759   -13.9366     1.3882 C.3     
  27 C27            3.5934   -15.0570     1.0411 C.3     
  28 C28            4.7378   -14.7191     0.0835 C.3     
  29 H29            1.0152     1.8416    -0.0268 H       
  30 H30           -0.5306     1.8250    -0.9091 H       
  31 H31           -0.5217     1.8170     0.8708 H       
  32 H32            1.7539    -0.2111     1.1274 H       
  33 H33            0.2358    -0.1431     2.0549 H       
  34 H34            1.1830    -2.4470     2.0094 H       
  35 H35           -0.4014    -2.3720     1.2010 H       
  36 H36            1.0232    -2.4300    -2.1727 H       
  37 H37           -0.4949    -2.3621    -1.2452 H       
  38 H38            0.0760    -0.1262    -2.1271 H       
  39 H39            1.6604    -0.2012    -1.3187 H       
  40 H40            3.4677    -6.7830    -2.2076 H       
  41 H41            1.9049    -7.5833    -2.4999 H       
  42 H42            2.2580    -6.0146    -3.2632 H       
  43 H43            0.9898    -6.8397     2.8928 H       
  44 H44           -0.5941    -6.0793     2.6078 H       
  45 H45           -0.1991    -7.6310     1.8304 H       
  46 H46            5.4070    -6.9766     1.8823 H       
  47 H47            6.2346    -9.2842     2.2585 H       
  48 H48            5.7884   -11.6676     1.9313 H       
  49 H49            5.2969   -14.1279     2.1830 H       
  50 H50            3.6683   -15.9854     1.6072 H       
  51 H51            2.5856   -14.7681     0.7427 H       
  52 H52            4.4829   -14.2079    -0.8449 H       
  53 H53            5.5657   -15.4253     0.0195 H       
@<TRIPOS>BOND
   1    1    2 1
   2    1   29 1
   3    1   30 1
   4    1   31 1
   5    2    3 1
   6    2    7 1
   7    3    4 1
   8    3   32 1
   9    3   33 1
  10    4    5 1
  11    4   34 1
  12    4   35 1
  13    5    6 1
  14    5    8 1
  15    6    7 1
  16    6   36 1
  17    6   37 1
  18    7   38 1
  19    7   39 1
  20    8    9 ar
  21    8   14 ar
  22    9   10 ar
  23   10   11 1
  24   10   12 ar
  25   11   40 1
  26   11   41 1
  27   11   42 1
  28   12   13 ar
  29   12   16 1
  30   13   14 ar
  31   13   15 1
  32   15   43 1
  33   15   44 1
  34   15   45 1
  35   16   17 1
  36   17   18 ar
  37   17   22 ar
  38   18   19 ar
  39   19   20 ar
  40   19   46 1
  41   20   21 ar
  42   20   47 1
  43   21   22 ar
  44   21   23 1
  45   23   24 am
  46   23   48 1
  47   24   25 2
  48   24   26 1
  49   26   27 1
  50   26   28 1
  51   26   49 1
  52   27   28 1
  53   27   50 1
  54   27   51 1
  55   28   52 1
  56   28   53 1

#	End of record

