#	Name: ASD00170054
#	Creating user name:	WinNT
#	Creation time:	15. 06. 2019 18:31

#	Modifying user name:	WinNT
#	Modification time:	15. 06. 2019 18:31

#	Program:	/corina/corina34_cracker 3.40 0067  02.08.2006

@<TRIPOS>MOLECULE
ASD00170054
  45   46    0    0    0
SMALL
NO_CHARGES


@<TRIPOS>ATOM
   1 C1             3.3330     1.4450    -3.6808 C.ar    
   2 C2             3.3712     0.0604    -3.6903 C.ar    
   3 C3             3.5099    -0.6424    -2.5048 C.ar    
   4 C4             3.6104     0.0336    -1.3071 C.ar    
   5 C5             3.5725     1.4292    -1.2911 C.ar    
   6 C6             3.4330     2.1321    -2.4895 C.ar    
   7 Cl7            3.2441    -0.7976    -5.1941 Cl      
   8 C8             4.9697     4.3199    -0.0729 C.2     
   9 C9             3.7611     3.6212    -0.0060 C.2     
  10 C10            3.6793     2.1599    -0.0102 C.2     
  11 O11            3.6991     1.5459     1.0412 O.2     
  12 C12            4.8230     5.6567    -0.0497 C.2     
  13 S13            3.1214     6.0791     0.0517 S.3     
  14 C14            2.6529     4.4391     0.0649 C.2     
  15 N15            1.3508     3.9941     0.1352 N.pl3   
  16 C16            5.8994     6.5997    -0.1004 C.1     
  17 C17            6.7819     7.3729    -0.1420 C.1     
  18 C18            7.6727     9.6527    -0.1673 C.2     
  19 C19            7.8583     8.3160    -0.1927 C.2     
  20 C20            9.2446     7.9292    -0.2757 C.2     
  21 C21           10.0920     8.9516    -0.3125 C.2     
  22 S22            9.2225    10.4759    -0.2462 S.3     
  23 C23            6.3117     3.6393    -0.1567 C.3     
  24 H24            3.2292     1.9876    -4.6088 H       
  25 H25            3.5390    -1.7219    -2.5184 H       
  26 H26            3.7178    -0.5154    -0.3833 H       
  27 H27            3.4035     3.2116    -2.4833 H       
  28 H28            0.6275     4.6286     0.2583 H       
  29 H29            1.1575     3.0464     0.0617 H       
  30 H30            6.7125    10.1438    -0.1114 H       
  31 H31            9.5661     6.8985    -0.3048 H       
  32 H32           11.1662     8.8583    -0.3739 H       
  33 H33            6.5745     3.4819    -1.2028 H       
  34 H34            7.0671     4.2659     0.3175 H       
  35 H35            6.2640     2.6778     0.3546 H       
  36 C36           18.8644    18.6018     6.9676 C.3     
  37 C37           18.8848    17.0949     6.9593 C.2     
  38 C38           17.7620    16.4261     6.9664 C.1     
  39 C39           16.6391    15.7573     6.9735 C.2     
  40 H40           19.8870    18.9791     6.9598 H       
  41 H41           18.3372    18.9629     6.0845 H       
  42 H42           18.3542    18.9533     7.8644 H       
  43 H43           19.8273    16.5677     6.9474 H       
  44 H44           16.1841    15.4759     7.9117 H       
  45 H45           16.1662    15.4859     6.0412 H       
@<TRIPOS>BOND
   1    1    2 ar
   2    1    6 ar
   3    1   24 1
   4    2    3 ar
   5    2    7 1
   6    3    4 ar
   7    3   25 1
   8    4    5 ar
   9    4   26 1
  10    5    6 ar
  11    5   10 1
  12    6   27 1
  13    8   23 1
  14    8    9 1
  15    8   12 2
  16    9   10 1
  17    9   14 2
  18   10   11 2
  19   12   13 1
  20   12   16 1
  21   13   14 1
  22   14   15 1
  23   15   28 1
  24   15   29 1
  25   16   17 3
  26   17   19 1
  27   18   19 2
  28   18   22 1
  29   18   30 1
  30   19   20 1
  31   20   21 2
  32   20   31 1
  33   21   22 1
  34   21   32 1
  35   23   33 1
  36   23   34 1
  37   23   35 1
  38   36   37 1
  39   36   40 1
  40   36   41 1
  41   36   42 1
  42   37   38 2
  43   37   43 1
  44   38   39 2
  45   39   44 1
  46   39   45 1

#	End of record

