#	Name: ASD08150354
#	Creating user name:	WinNT
#	Creation time:	15. 06. 2019 21:15

#	Modifying user name:	WinNT
#	Modification time:	15. 06. 2019 21:15

#	Program:	/corina/corina34_cracker 3.40 0067  02.08.2006

@<TRIPOS>MOLECULE
ASD08150354
  65   70    0    0    0
SMALL
NO_CHARGES


@<TRIPOS>ATOM
   1 N1             1.6758     4.7301     1.1174 N.am    
   2 C2             2.2523     4.3590     2.2771 C.2     
   3 C3             3.5248     3.7527     2.2911 C.2     
   4 C4             4.1901     3.5341     1.1282 C.2     
   5 C5             3.5866     3.9232    -0.0935 C.ar    
   6 C6             4.2333     3.7188    -1.3276 C.ar    
   7 N7             3.6742     4.0788    -2.4531 N.ar    
   8 C8             2.4645     4.6576    -2.5006 C.ar    
   9 C9             1.7410     4.9013    -1.3075 C.ar    
  10 C10            2.3185     4.5240    -0.0724 C.ar    
  11 C11            0.4814     5.5059    -1.3680 C.ar    
  12 C12           -0.0464     5.8608    -2.5981 C.ar    
  13 C13            0.6749     5.6162    -3.7744 C.ar    
  14 C14            1.9011     5.0290    -3.7323 C.ar    
  15 O15            1.6657     4.5505     3.3287 O.2     
  16 C16           -1.3827     6.5030    -2.6710 C.2     
  17 C17            0.4076     5.3256     1.1297 C.ar    
  18 C18            0.2877     6.7062     1.0336 C.ar    
  19 C19           -0.9614     7.2929     1.0457 C.ar    
  20 C20           -2.0990     6.5026     1.1535 C.ar    
  21 C21           -1.9790     5.1221     1.2491 C.ar    
  22 C22           -0.7296     4.5352     1.2321 C.ar    
  23 N23           -3.3644     7.0968     1.1662 N.3     
  24 C24           -2.5736     6.0141    -2.0992 C.2     
  25 C25           -3.9723     7.0695    -0.1709 C.3     
  26 C26           -5.4207     7.5615    -0.0800 C.3     
  27 N27           -5.4270     8.8762     0.5793 N.am    
  28 C28           -4.7184     9.0156     1.8605 C.3     
  29 C29           -3.2976     8.4663     1.6933 C.3     
  30 C30           -6.0649     9.9255     0.0239 C.2     
  31 O31           -6.7107     9.7743    -0.9915 O.2     
  32 N32           -3.5335     6.8554    -2.3788 N.2     
  33 N33           -2.9984     7.9061    -3.1338 N.pl3   
  34 C34           -1.6799     7.6774    -3.2992 C.2     
  35 C35           -3.7418     9.0579    -3.6506 C.3     
  36 C36           -5.9757    11.2867     0.6645 C.3     
  37 C37           -3.2128     4.2647     1.3664 C.3     
  38 F38           -2.8376     2.9362     1.5934 F       
  39 F39           -3.9952     4.7172     2.4342 F       
  40 F40           -3.9508     4.3448     0.1807 F       
  41 H41            3.9719     3.4616     3.2301 H       
  42 H42            5.1656     3.0705     1.1341 H       
  43 H43            5.2092     3.2565    -1.3445 H       
  44 H44           -0.0757     5.6943    -0.4621 H       
  45 H45            0.2515     5.8976    -4.7272 H       
  46 H46            2.4434     4.8485    -4.6487 H       
  47 H47            1.1720     7.3205     0.9499 H       
  48 H48           -1.0545     8.3663     0.9717 H       
  49 H49           -0.6364     3.4615     1.3026 H       
  50 H50           -2.6756     5.1024    -1.5293 H       
  51 H51           -3.4086     7.7195    -0.8400 H       
  52 H52           -3.9580     6.0499    -0.5562 H       
  53 H53           -5.8401     7.6523    -1.0820 H       
  54 H54           -6.0111     6.8559     0.5046 H       
  55 H55           -4.6734    10.0678     2.1415 H       
  56 H56           -5.2412     8.4498     2.6316 H       
  57 H57           -2.7940     8.4599     2.6599 H       
  58 H58           -2.7433     9.0970     0.9981 H       
  59 H59           -0.9858     8.3066    -3.8366 H       
  60 H60           -3.7238     9.8618    -2.9148 H       
  61 H61           -3.2807     9.4022    -4.5763 H       
  62 H62           -4.7739     8.7665    -3.8453 H       
  63 H63           -5.4397    11.2086     1.6104 H       
  64 H64           -5.4427    11.9667    -0.0001 H       
  65 H65           -6.9800    11.6692     0.8464 H       
@<TRIPOS>BOND
   1    1    2 am
   2    1   10 1
   3    1   17 1
   4    2    3 1
   5    2   15 2
   6    3    4 2
   7    3   41 1
   8    4    5 1
   9    4   42 1
  10    5    6 ar
  11    5   10 ar
  12    6    7 ar
  13    6   43 1
  14    7    8 ar
  15    8    9 ar
  16    8   14 ar
  17    9   10 ar
  18    9   11 ar
  19   11   12 ar
  20   11   44 1
  21   12   13 ar
  22   12   16 1
  23   13   14 ar
  24   13   45 1
  25   14   46 1
  26   16   24 1
  27   16   34 2
  28   17   18 ar
  29   17   22 ar
  30   18   19 ar
  31   18   47 1
  32   19   20 ar
  33   19   48 1
  34   20   21 ar
  35   20   23 1
  36   21   22 ar
  37   21   37 1
  38   22   49 1
  39   23   25 1
  40   23   29 1
  41   24   32 2
  42   24   50 1
  43   25   26 1
  44   25   51 1
  45   25   52 1
  46   26   27 1
  47   26   53 1
  48   26   54 1
  49   27   28 1
  50   27   30 am
  51   28   29 1
  52   28   55 1
  53   28   56 1
  54   29   57 1
  55   29   58 1
  56   30   31 2
  57   30   36 1
  58   32   33 1
  59   33   34 1
  60   33   35 1
  61   34   59 1
  62   35   60 1
  63   35   61 1
  64   35   62 1
  65   36   63 1
  66   36   64 1
  67   36   65 1
  68   37   38 1
  69   37   39 1
  70   37   40 1

#	End of record

