#	Name: ASD02030571
#	Creating user name:	WinNT
#	Creation time:	15. 06. 2019 20:15

#	Modifying user name:	WinNT
#	Modification time:	15. 06. 2019 20:15

#	Program:	/corina/corina34_cracker 3.40 0067  02.08.2006

@<TRIPOS>MOLECULE
ASD02030571
  63   68    0    0    0
SMALL
NO_CHARGES


@<TRIPOS>ATOM
   1 C1             0.0722     1.4761     0.1340 C.3     
   2 N2             0.0763     0.0072     0.1131 N.3     
   3 C3             0.6278    -0.5062    -1.1479 C.3     
   4 C4             2.0928    -0.0748    -1.2740 C.3     
   5 N5             2.1655     1.3852    -1.1123 N.am    
   6 C6             1.5144     1.9887     0.0604 C.3     
   7 C7            -1.2708    -0.5265     0.3545 C.3     
   8 C8             2.8120     2.1498    -2.0144 C.2     
   9 C9             2.7596     3.6116    -1.9086 C.2     
  10 O10            3.4392     1.6272    -2.9169 O.2     
  11 C11           -1.2264    -2.0555     0.3254 C.3     
  12 C12           -2.6295    -2.6114     0.5768 C.3     
  13 C13           -3.1265    -2.1416     1.9455 C.3     
  14 C14           -3.1709    -0.6125     1.9746 C.3     
  15 C15           -1.7678    -0.0567     1.7232 C.3     
  16 C16           -4.1215    -0.1091     0.8865 C.3     
  17 C17           -3.5800    -2.1080    -0.5113 C.3     
  18 C18           -2.2214    -0.0231    -0.7336 C.3     
  19 C19           -3.6245    -0.5789    -0.4821 C.3     
  20 C20            2.2129     5.6261    -1.2330 C.2     
  21 O21            2.0038     4.3171    -1.0418 O.3     
  22 C22            3.4716     4.4970    -2.6660 C.2     
  23 C23            3.1135     5.7817    -2.2284 C.2     
  24 C24            1.5551     6.7416    -0.4624 C.3     
  25 O25            0.3435     7.1229    -1.1171 O.3     
  26 C26           -0.3773     8.1242    -0.5468 C.ar    
  27 C27           -1.5639     8.5447    -1.1296 C.ar    
  28 C28           -2.2950     9.5626    -0.5484 C.ar    
  29 C29           -1.8444    10.1627     0.6137 C.ar    
  30 C30           -0.6614     9.7448     1.1965 C.ar    
  31 C31            0.0696     8.7231     0.6219 C.ar    
  32 Br32          -2.8467    11.5566     1.4065 Br      
  33 H33           -0.4909     1.8504    -0.7210 H       
  34 H34           -0.3914     1.8254     1.0565 H       
  35 H35            0.5672    -1.5945    -1.1550 H       
  36 H36            0.0570    -0.1043    -1.9849 H       
  37 H37            2.6853    -0.5592    -0.4978 H       
  38 H38            2.4734    -0.3538    -2.2566 H       
  39 H39            1.5126     3.0741    -0.0400 H       
  40 H40            2.0513     1.7028     0.9649 H       
  41 H41           -0.8723    -2.3902    -0.6496 H       
  42 H42           -0.5492    -2.4142     1.1006 H       
  43 H43           -2.5978    -3.7008     0.5561 H       
  44 H44           -4.1261    -2.5376     2.1246 H       
  45 H45           -2.4493    -2.5002     2.7207 H       
  46 H46           -3.5250    -0.2778     2.9496 H       
  47 H47           -1.0906    -0.4153     2.4983 H       
  48 H48           -1.7995     1.0327     1.7439 H       
  49 H49           -5.1211    -0.5052     1.0656 H       
  50 H50           -4.1531     0.9802     0.9072 H       
  51 H51           -3.2260    -2.4427    -1.4863 H       
  52 H52           -4.5796    -2.5040    -0.3321 H       
  53 H53           -2.2530     1.0663    -0.7128 H       
  54 H54           -1.8673    -0.3578    -1.7086 H       
  55 H55           -4.3017    -0.2203    -1.2573 H       
  56 H56            4.1743     4.2555    -3.4497 H       
  57 H57            3.4871     6.7184    -2.6149 H       
  58 H58            1.3303     6.4016     0.5485 H       
  59 H59            2.2283     7.5977    -0.4165 H       
  60 H60           -1.9157     8.0770    -2.0373 H       
  61 H61           -3.2189     9.8903    -1.0018 H       
  62 H62           -0.3114    10.2146     2.1038 H       
  63 H63            0.9931     8.3972     1.0772 H       
@<TRIPOS>BOND
   1    1    2 1
   2    1    6 1
   3    1   33 1
   4    1   34 1
   5    2    3 1
   6    2    7 1
   7    3    4 1
   8    3   35 1
   9    3   36 1
  10    4    5 1
  11    4   37 1
  12    4   38 1
  13    5    6 1
  14    5    8 am
  15    6   39 1
  16    6   40 1
  17    7   11 1
  18    7   18 1
  19    7   15 1
  20    8    9 1
  21    8   10 2
  22    9   22 2
  23    9   21 1
  24   11   12 1
  25   11   41 1
  26   11   42 1
  27   12   17 1
  28   12   13 1
  29   12   43 1
  30   13   14 1
  31   13   44 1
  32   13   45 1
  33   14   15 1
  34   14   16 1
  35   14   46 1
  36   15   47 1
  37   15   48 1
  38   16   19 1
  39   16   49 1
  40   16   50 1
  41   17   19 1
  42   17   51 1
  43   17   52 1
  44   18   19 1
  45   18   53 1
  46   18   54 1
  47   19   55 1
  48   20   21 1
  49   20   23 2
  50   20   24 1
  51   22   23 1
  52   22   56 1
  53   23   57 1
  54   24   25 1
  55   24   58 1
  56   24   59 1
  57   25   26 1
  58   26   27 ar
  59   26   31 ar
  60   27   28 ar
  61   27   60 1
  62   28   29 ar
  63   28   61 1
  64   29   30 ar
  65   29   32 1
  66   30   31 ar
  67   30   62 1
  68   31   63 1

#	End of record

