#	Name: ASD01884604
#	Creating user name:	WinNT
#	Creation time:	15. 06. 2019 19:48

#	Modifying user name:	WinNT
#	Modification time:	15. 06. 2019 19:48

#	Program:	/corina/corina34_cracker 3.40 0067  02.08.2006

@<TRIPOS>MOLECULE
ASD01884604
  35   37    0    0    0
SMALL
NO_CHARGES


@<TRIPOS>ATOM
   1 C1            -0.0164     1.3575     0.0095 C.2     
   2 C2             0.0021    -0.0041     0.0020 C.2     
   3 C3             1.2440    -0.6750    -0.0134 C.2     
   4 C4             2.4024     0.0466    -0.0206 C.2     
   5 N5             2.3701     1.4022    -0.0126 N.am    
   6 C6             1.1987     2.0651     0.0017 C.2     
   7 O7             1.1912     3.2855     0.0092 O.2     
   8 C8             3.6267     2.1553    -0.0201 C.3     
   9 C9             1.2898    -2.1583    -0.0214 C.ar    
  10 C10            4.0442     2.4216    -1.4434 C.ar    
  11 C11            3.6204     3.5705    -2.0843 C.ar    
  12 C12            4.0035     3.8158    -3.3900 C.ar    
  13 C13            4.8100     2.9120    -4.0551 C.ar    
  14 C14            5.2346     1.7616    -3.4140 C.ar    
  15 C15            4.8557     1.5196    -2.1057 C.ar    
  16 C16            0.8127    -2.8780     1.0724 C.ar    
  17 C17            1.8047    -2.8356    -1.1249 C.ar    
  18 C18            1.8449    -4.2149    -1.1283 C.ar    
  19 C19            1.3743    -4.9263    -0.0365 C.ar    
  20 C20            0.8568    -4.2571     1.0606 C.ar    
  21 Cl21           6.2475     0.6256    -4.2490 Cl      
  22 F22            1.4152    -6.2766    -0.0441 F       
  23 H23           -0.9563     1.8894     0.0169 H       
  24 H24           -0.9217    -0.5635     0.0082 H       
  25 H25            3.3528    -0.4664    -0.0325 H       
  26 H26            3.4857     3.1025     0.5005 H       
  27 H27            4.4006     1.5757     0.4832 H       
  28 H28            2.9895     4.2768    -1.5652 H       
  29 H29            3.6720     4.7137    -3.8903 H       
  30 H30            5.1086     3.1033    -5.0752 H       
  31 H31            5.1868     0.6219    -1.6048 H       
  32 H32            0.4094    -2.3571     1.9282 H       
  33 H33            2.1714    -2.2819    -1.9766 H       
  34 H34            2.2434    -4.7406    -1.9833 H       
  35 H35            0.4910    -4.8155     1.9096 H       
@<TRIPOS>BOND
   1    1    2 2
   2    1    6 1
   3    1   23 1
   4    2    3 1
   5    2   24 1
   6    3    4 2
   7    3    9 1
   8    4    5 1
   9    4   25 1
  10    5    6 am
  11    5    8 1
  12    6    7 2
  13    8   10 1
  14    8   26 1
  15    8   27 1
  16    9   16 ar
  17    9   17 ar
  18   10   11 ar
  19   10   15 ar
  20   11   12 ar
  21   11   28 1
  22   12   13 ar
  23   12   29 1
  24   13   14 ar
  25   13   30 1
  26   14   15 ar
  27   14   21 1
  28   15   31 1
  29   16   20 ar
  30   16   32 1
  31   17   18 ar
  32   17   33 1
  33   18   19 ar
  34   18   34 1
  35   19   20 ar
  36   19   22 1
  37   20   35 1

#	End of record

