#	Name: ASD01140050
#	Creating user name:	WinNT
#	Creation time:	15. 06. 2019 18:59

#	Modifying user name:	WinNT
#	Modification time:	15. 06. 2019 18:59

#	Program:	/corina/corina34_cracker 3.40 0067  02.08.2006

@<TRIPOS>MOLECULE
ASD01140050
  37   37    0    0    0
SMALL
NO_CHARGES


@<TRIPOS>ATOM
   1 C1            -0.0162     1.3457     0.0094 C.2     
   2 N2             0.0021    -0.0041     0.0020 N.am    
   3 C3            -1.1232    -0.7278     0.0093 C.2     
   4 N4            -2.3594    -0.2164     0.0244 N.am    
   5 C5            -2.5820     1.1150     0.0333 C.2     
   6 C6            -1.3707     2.0284     0.0325 C.3     
   7 O7            -1.0145    -1.9378     0.0013 O.2     
   8 C8             1.2926    -0.6972    -0.0150 C.3     
   9 O9            -3.7080     1.5641     0.0465 O.2     
  10 O10            1.0117     1.9884     0.0031 O.2     
  11 C11           -1.4451     2.9189     1.2744 C.3     
  12 C12           -1.4444     2.0574     2.5109 C.2     
  13 C13           -0.5497     2.2558     3.4470 C.2     
  14 C14           -1.4577     2.9333    -1.1982 C.3     
  15 C15           -1.4698     2.0734    -2.4637 C.3     
  16 C16           -2.6935     3.7305    -1.1348 C.1     
  17 C17           -3.6791     4.3663    -1.0842 C.1     
  18 C18           -4.9150     5.1634    -1.0208 C.3     
  19 C19           -5.0019     6.0683    -2.2515 C.3     
  20 H20           -3.1184    -0.8203     0.0287 H       
  21 H21            1.6233    -0.8746     1.0083 H       
  22 H22            1.1863    -1.6504    -0.5329 H       
  23 H23            2.0285    -0.0822    -0.5332 H       
  24 H24           -0.5830     3.5856     1.2957 H       
  25 H25           -2.3606     3.5096     1.2437 H       
  26 H26           -2.1816     1.2764     2.6254 H       
  27 H27           -0.5492     1.6384     4.3331 H       
  28 H28            0.1875     3.0367     3.3326 H       
  29 H29           -0.5958     3.6003    -1.2204 H       
  30 H30           -2.3316     1.4064    -2.4415 H       
  31 H31           -1.5317     2.7180    -3.3404 H       
  32 H32           -0.5547     1.4831    -2.5106 H       
  33 H33           -5.7768     4.4965    -0.9986 H       
  34 H34           -4.9063     5.7760    -0.1193 H       
  35 H35           -4.1401     6.7352    -2.2737 H       
  36 H36           -5.0105     5.4557    -3.1530 H       
  37 H37           -5.9170     6.6586    -2.2046 H       
@<TRIPOS>BOND
   1    1    2 am
   2    1   10 2
   3    1    6 1
   4    2    3 am
   5    2    8 1
   6    3    4 am
   7    3    7 2
   8    4    5 am
   9    4   20 1
  10    5    6 1
  11    5    9 2
  12    6   11 1
  13    6   14 1
  14    8   21 1
  15    8   22 1
  16    8   23 1
  17   11   12 1
  18   11   24 1
  19   11   25 1
  20   12   13 2
  21   12   26 1
  22   13   27 1
  23   13   28 1
  24   14   15 1
  25   14   16 1
  26   14   29 1
  27   15   30 1
  28   15   31 1
  29   15   32 1
  30   16   17 3
  31   17   18 1
  32   18   19 1
  33   18   33 1
  34   18   34 1
  35   19   35 1
  36   19   36 1
  37   19   37 1

#	End of record

