#	Name: ASD04930051
#	Creating user name:	WinNT
#	Creation time:	15. 06. 2019 20:56

#	Modifying user name:	WinNT
#	Modification time:	15. 06. 2019 20:56

#	Program:	/corina/corina34_cracker 3.40 0067  02.08.2006

@<TRIPOS>MOLECULE
ASD04930051
  95   98    0    0    0
SMALL
NO_CHARGES


@<TRIPOS>ATOM
   1 C1             1.2248    -0.9015    -1.2521 C.ar    
   2 C2             0.6866    -0.9873     0.0240 C.ar    
   3 C3             1.3469    -0.4411     1.1035 C.ar    
   4 C4             2.5666     0.2036     0.9171 C.ar    
   5 C5             3.1085     0.2876    -0.3780 C.ar    
   6 C6             2.4203    -0.2736    -1.4595 C.ar    
   7 N7             3.2334     0.7532     1.9928 N.am    
   8 C8             4.4118     1.3824     1.8473 C.2     
   9 C9             5.0376     1.5095     0.5318 C.2     
  10 C10            4.3930     0.9654    -0.5815 C.2     
  11 O11            4.9376     1.0616    -1.8123 O.3     
  12 O12            4.9660     1.8536     2.8244 O.2     
  13 C13            6.3251     2.1993     0.3834 C.2     
  14 O14            6.3646     3.4152     0.3584 O.2     
  15 N15            7.4633     1.4857     0.2748 N.am    
  16 N16            8.6789     2.1385     0.0322 N.am    
  17 C17            9.5710     2.2945     1.0304 C.2     
  18 C18            9.2608     1.7667     2.4074 C.3     
  19 O19           10.6233     2.8597     0.8204 O.2     
  20 C20           10.4297     2.0726     3.3461 C.3     
  21 C21           10.1148     1.5367     4.7441 C.3     
  22 C22           11.2837     1.8425     5.6828 C.3     
  23 C23           10.9688     1.3067     7.0808 C.3     
  24 C24           12.1377     1.6125     8.0195 C.3     
  25 C25           11.8228     1.0766     9.4175 C.3     
  26 C26            2.6409     0.6485     3.3285 C.3     
  27 C27            3.1264    -0.6364     4.0025 C.3     
  28 C28            2.6085    -0.6846     5.4414 C.3     
  29 C29            3.0941    -1.9695     6.1154 C.3     
  30 C30            2.5678    -3.1809     5.3430 C.3     
  31 C31            3.0857    -3.1326     3.9042 C.3     
  32 C32            2.6002    -1.8478     3.2302 C.3     
  33 C33           12.9917     1.3825    10.3562 C.3     
  34 C34           12.6768     0.8466    11.7542 C.3     
  35 C35           13.8457     1.1525    12.6929 C.3     
  36 C36            8.9805     2.6516    -1.3065 C.3     
  37 C37            9.6559     1.5553    -2.1327 C.3     
  38 C38            9.8800     2.0575    -3.5604 C.3     
  39 C39           10.5554     0.9612    -4.3867 C.3     
  40 C40           11.9020     0.6029    -3.7548 C.3     
  41 C41           11.6779     0.1006    -2.3271 C.3     
  42 C42           11.0025     1.1970    -1.5009 C.3     
  43 H43            0.6969    -1.3382    -2.0869 H       
  44 H44           -0.2594    -1.4866     0.1728 H       
  45 H45            0.9187    -0.5129     2.0923 H       
  46 H46            2.8336    -0.2113    -2.4553 H       
  47 H47            5.7437     1.5946    -1.8452 H       
  48 H48            7.4408     0.5201     0.3645 H       
  49 H49            8.3570     2.2451     2.7848 H       
  50 H50            9.1075     0.6887     2.3573 H       
  51 H51           11.3335     1.5942     2.9687 H       
  52 H52           10.5830     3.1506     3.3962 H       
  53 H53            9.2110     2.0150     5.1215 H       
  54 H54            9.9615     0.4587     4.6940 H       
  55 H55           12.1875     1.3642     5.3054 H       
  56 H56           11.4370     2.9205     5.7329 H       
  57 H57           10.0650     1.7850     7.4582 H       
  58 H58           10.8155     0.2287     7.0307 H       
  59 H59           13.0415     1.1342     7.6421 H       
  60 H60           12.2910     2.6905     8.0696 H       
  61 H61           10.9190     1.5550     9.7949 H       
  62 H62           11.6695    -0.0014     9.3674 H       
  63 H63            2.9405     1.5085     3.9274 H       
  64 H64            1.5544     0.6258     3.2433 H       
  65 H65            4.2163    -0.6544     4.0079 H       
  66 H66            2.9834     0.1783     5.9916 H       
  67 H67            1.5187    -0.6667     5.4360 H       
  68 H68            4.1839    -1.9875     6.1207 H       
  69 H69            2.7251    -2.0039     7.1405 H       
  70 H70            2.9137    -4.0962     5.8232 H       
  71 H71            1.4779    -3.1629     5.3377 H       
  72 H72            4.1756    -3.1506     3.9095 H       
  73 H73            2.7108    -3.9956     3.3539 H       
  74 H74            1.5103    -1.8298     3.2248 H       
  75 H75            2.9691    -1.8134     2.2051 H       
  76 H76           13.8955     0.9042     9.9788 H       
  77 H77           13.1450     2.4605    10.4063 H       
  78 H78           11.7730     1.3250    12.1316 H       
  79 H79           12.5235    -0.2314    11.7041 H       
  80 H80           14.7495     0.6741    12.3155 H       
  81 H81           13.9990     2.2305    12.7430 H       
  82 H82           13.6214     0.7707    13.6889 H       
  83 H83            8.0554     2.9572    -1.7953 H       
  84 H84            9.6487     3.5089    -1.2250 H       
  85 H85            9.0181     0.6716    -2.1543 H       
  86 H86            8.9206     2.3128    -4.0106 H       
  87 H87           10.5177     2.9412    -3.5388 H       
  88 H88            9.9176     0.0775    -4.4083 H       
  89 H89           10.7150     1.3190    -5.4038 H       
  90 H90           12.3832    -0.1782    -4.3435 H       
  91 H91           12.5398     1.4866    -3.7332 H       
  92 H92           11.0401    -0.7830    -2.3487 H       
  93 H93           12.6373    -0.1546    -1.8770 H       
  94 H94           11.6403     2.0807    -1.4793 H       
  95 H95           10.8428     0.8392    -0.4837 H       
@<TRIPOS>BOND
   1    1    2 ar
   2    1    6 ar
   3    1   43 1
   4    2    3 ar
   5    2   44 1
   6    3    4 ar
   7    3   45 1
   8    4    5 ar
   9    4    7 1
  10    5    6 ar
  11    5   10 1
  12    6   46 1
  13    7    8 am
  14    7   26 1
  15    8    9 1
  16    8   12 2
  17    9   10 2
  18    9   13 1
  19   10   11 1
  20   11   47 1
  21   13   14 2
  22   13   15 am
  23   15   16 1
  24   15   48 1
  25   16   17 am
  26   16   36 1
  27   17   18 1
  28   17   19 2
  29   18   20 1
  30   18   49 1
  31   18   50 1
  32   20   21 1
  33   20   51 1
  34   20   52 1
  35   21   22 1
  36   21   53 1
  37   21   54 1
  38   22   23 1
  39   22   55 1
  40   22   56 1
  41   23   24 1
  42   23   57 1
  43   23   58 1
  44   24   25 1
  45   24   59 1
  46   24   60 1
  47   25   33 1
  48   25   61 1
  49   25   62 1
  50   26   27 1
  51   26   63 1
  52   26   64 1
  53   27   28 1
  54   27   32 1
  55   27   65 1
  56   28   29 1
  57   28   66 1
  58   28   67 1
  59   29   30 1
  60   29   68 1
  61   29   69 1
  62   30   31 1
  63   30   70 1
  64   30   71 1
  65   31   32 1
  66   31   72 1
  67   31   73 1
  68   32   74 1
  69   32   75 1
  70   33   34 1
  71   33   76 1
  72   33   77 1
  73   34   35 1
  74   34   78 1
  75   34   79 1
  76   35   80 1
  77   35   81 1
  78   35   82 1
  79   36   37 1
  80   36   83 1
  81   36   84 1
  82   37   38 1
  83   37   42 1
  84   37   85 1
  85   38   39 1
  86   38   86 1
  87   38   87 1
  88   39   40 1
  89   39   88 1
  90   39   89 1
  91   40   41 1
  92   40   90 1
  93   40   91 1
  94   41   42 1
  95   41   92 1
  96   41   93 1
  97   42   94 1
  98   42   95 1

#	End of record

