#	Name: ASD02500821
#	Creating user name:	WinNT
#	Creation time:	15. 06. 2019 20:23

#	Modifying user name:	WinNT
#	Modification time:	15. 06. 2019 20:23

#	Program:	/corina/corina34_cracker 3.40 0067  02.08.2006

@<TRIPOS>MOLECULE
ASD02500821
  38   41    0    0    0
SMALL
NO_CHARGES


@<TRIPOS>ATOM
   1 C1            -0.0169     1.3922     0.0097 C.2     
   2 C2             0.0021    -0.0041     0.0020 C.2     
   3 C3            -1.2333    -0.6954     0.0100 C.2     
   4 N4            -2.3825     0.0095     0.0247 N.am    
   5 N5            -2.3712     1.4072     0.0322 N.2     
   6 C6            -1.2531     2.0768     0.0201 C.2     
   7 C7             1.3825     1.8293    -0.0013 C.2     
   8 C8             2.1634     0.6897    -0.0148 C.2     
   9 N9             1.3093    -0.4166    -0.0126 N.pl3   
  10 S10            2.4046     3.2611    -0.0034 S.3     
  11 C11            3.8576     2.2752    -0.0226 C.2     
  12 C12            3.5281     0.9611    -0.0264 C.2     
  13 O13           -1.2578    -1.9155     0.0033 O.2     
  14 C14           -3.6637    -0.7009     0.0325 C.3     
  15 C15           -4.0898    -0.9527     1.4559 C.ar    
  16 C16           -4.6858     0.0589     2.1895 C.ar    
  17 C17           -5.0768    -0.1739     3.4974 C.ar    
  18 C18           -4.8718    -1.4152     4.0687 C.ar    
  19 C19           -4.2765    -2.4247     3.3350 C.ar    
  20 C20           -3.8910    -2.1953     2.0276 C.ar    
  21 F21           -4.8853     1.2723     1.6301 F       
  22 B22            5.3244     2.8349    -0.0337 Du      
  23 O23            5.5494     4.2370    -0.0279 O.3     
  24 O24            6.4261     1.9391    -0.0495 O.3     
  25 C25            1.7475    -1.8145    -0.0237 C.3     
  26 H26           -1.2713     3.1566     0.0266 H       
  27 H27            4.2727     0.1788    -0.0374 H       
  28 H28           -4.4177    -0.0958    -0.4709 H       
  29 H29           -3.5547    -1.6525    -0.4878 H       
  30 H30           -5.5415     0.6146     4.0708 H       
  31 H31           -5.1764    -1.5969     5.0888 H       
  32 H32           -4.1164    -3.3945     3.7825 H       
  33 H33           -3.4262    -2.9845     1.4555 H       
  34 H34            6.4839     4.4854    -0.0356 H       
  35 H35            7.2885     2.3764    -0.0554 H       
  36 H36            1.8660    -2.1662     1.0011 H       
  37 H37            1.0020    -2.4249    -0.5334 H       
  38 H38            2.7004    -1.8923    -0.5471 H       
@<TRIPOS>BOND
   1    1    2 2
   2    1    7 1
   3    1    6 1
   4    2    3 1
   5    2    9 1
   6    3    4 am
   7    3   13 2
   8    4    5 1
   9    4   14 1
  10    5    6 2
  11    6   26 1
  12    7   10 1
  13    7    8 2
  14    8    9 1
  15    8   12 1
  16    9   25 1
  17   10   11 1
  18   11   12 2
  19   11   22 1
  20   12   27 1
  21   14   15 1
  22   14   28 1
  23   14   29 1
  24   15   16 ar
  25   15   20 ar
  26   16   17 ar
  27   16   21 1
  28   17   18 ar
  29   17   30 1
  30   18   19 ar
  31   18   31 1
  32   19   20 ar
  33   19   32 1
  34   20   33 1
  35   22   23 1
  36   22   24 1
  37   23   34 1
  38   24   35 1
  39   25   36 1
  40   25   37 1
  41   25   38 1

#	End of record

