#	Name: ASD01028207
#	Creating user name:	WinNT
#	Creation time:	15. 06. 2019 18:56

#	Modifying user name:	WinNT
#	Modification time:	15. 06. 2019 18:56

#	Program:	/corina/corina34_cracker 3.40 0067  02.08.2006

@<TRIPOS>MOLECULE
ASD01028207
  60   64    0    0    0
SMALL
NO_CHARGES


@<TRIPOS>ATOM
   1 C1            -0.0166     1.3719     0.0096 C.ar    
   2 C2             0.0021    -0.0041     0.0020 C.ar    
   3 C3             1.1750     2.1035     0.0021 C.ar    
   4 C4             2.3797     1.4715    -0.0128 C.ar    
   5 C5             2.4326     0.0695    -0.0208 C.ar    
   6 C6             1.2322    -0.6815    -0.0134 C.ar    
   7 C7             3.6676    -0.6170    -0.0367 C.ar    
   8 C8             3.6411    -2.0003    -0.0444 C.ar    
   9 C9             2.4221    -2.6660    -0.0364 C.ar    
  10 N10            1.2804    -2.0188    -0.0211 N.ar    
  11 O11            4.8427     0.0593    -0.0447 O.3     
  12 C12            6.0400    -0.7207    -0.0607 C.3     
  13 C13            7.2364     0.1957    -0.0676 C.2     
  14 N14            7.8836     0.6772     1.0229 N.pl3   
  15 C15            8.9035     1.4635     0.5401 C.2     
  16 N16            8.8273     1.4216    -0.7797 N.2     
  17 N17            7.8439     0.6674    -1.1278 N.2     
  18 N18            7.7075     0.5258     2.3996 N.2     
  19 C19            8.5122     1.1313     3.2451 C.2     
  20 C20            9.5679     1.9447     2.7809 C.2     
  21 C21            9.7646     2.1109     1.4463 C.2     
  22 C22            8.3077     0.9578     4.7037 C.ar    
  23 C23            7.2666     0.1562     5.1706 C.ar    
  24 C24            9.1606     1.5922     5.6072 C.ar    
  25 C25            8.9728     1.4321     6.9617 C.ar    
  26 C26            7.9274     0.6339     7.4322 C.ar    
  27 C27            7.0760    -0.0061     6.5262 C.ar    
  28 O28           -1.2065     2.0271     0.0188 O.3     
  29 C29           -1.1606     3.4553     0.0263 C.3     
  30 Cl30           5.7757    -0.9982     7.1081 Cl      
  31 C31            7.7254     0.4611     8.8851 C.2     
  32 N32            8.5498     1.0738     9.7577 N.am    
  33 C33            8.3494     0.9025    11.1988 C.3     
  34 C34            9.4124     1.6974    11.9596 C.3     
  35 O35            9.2286     3.0934    11.7157 O.3     
  36 C36           10.1753     3.9297    12.3838 C.3     
  37 O37            6.8154    -0.2337     9.2939 O.2     
  38 H38           -0.9239    -0.5598     0.0082 H       
  39 H39            1.1387     3.1829     0.0079 H       
  40 H40            3.2932     2.0476    -0.0188 H       
  41 H41            4.5646    -2.5602    -0.0569 H       
  42 H42            2.4134    -3.7460    -0.0425 H       
  43 H43            6.0728    -1.3543     0.8256 H       
  44 H44            6.0552    -1.3447    -0.9543 H       
  45 H45           10.2206     2.4361     3.4872 H       
  46 H46           10.5711     2.7320     1.0856 H       
  47 H47            6.6094    -0.3374     4.4700 H       
  48 H48            9.9691     2.2091     5.2438 H       
  49 H49            9.6338     1.9233     7.6604 H       
  50 H50           -2.1761     3.8514     0.0333 H       
  51 H51           -0.6312     3.7971     0.9157 H       
  52 H52           -0.6396     3.8068    -0.8642 H       
  53 H53            9.2759     1.6282     9.4315 H       
  54 H54            7.3588     1.2649    11.4735 H       
  55 H55            8.4335    -0.1538    11.4542 H       
  56 H56            9.3189     1.4997    13.0274 H       
  57 H57           10.4035     1.3966    11.6198 H       
  58 H58            9.9682     4.9735    12.1478 H       
  59 H59           10.0976     3.7784    13.4605 H       
  60 H60           11.1822     3.6752    12.0529 H       
@<TRIPOS>BOND
   1    1    2 ar
   2    1    3 ar
   3    1   28 1
   4    2    6 ar
   5    2   38 1
   6    3    4 ar
   7    3   39 1
   8    4    5 ar
   9    4   40 1
  10    5    6 ar
  11    5    7 ar
  12    6   10 ar
  13    7    8 ar
  14    7   11 1
  15    8    9 ar
  16    8   41 1
  17    9   10 ar
  18    9   42 1
  19   11   12 1
  20   12   13 1
  21   12   43 1
  22   12   44 1
  23   13   14 1
  24   13   17 2
  25   14   15 1
  26   14   18 1
  27   15   16 2
  28   15   21 1
  29   16   17 1
  30   18   19 2
  31   19   20 1
  32   19   22 1
  33   20   21 2
  34   20   45 1
  35   21   46 1
  36   22   23 ar
  37   22   24 ar
  38   23   27 ar
  39   23   47 1
  40   24   25 ar
  41   24   48 1
  42   25   26 ar
  43   25   49 1
  44   26   27 ar
  45   26   31 1
  46   27   30 1
  47   28   29 1
  48   29   50 1
  49   29   51 1
  50   29   52 1
  51   31   32 am
  52   31   37 2
  53   32   33 1
  54   32   53 1
  55   33   34 1
  56   33   54 1
  57   33   55 1
  58   34   35 1
  59   34   56 1
  60   34   57 1
  61   35   36 1
  62   36   58 1
  63   36   59 1
  64   36   60 1

#	End of record

