#	Name: ASD00843326
#	Creating user name:	WinNT
#	Creation time:	15. 06. 2019 18:46

#	Modifying user name:	WinNT
#	Modification time:	15. 06. 2019 18:46

#	Program:	/corina/corina34_cracker 3.40 0067  02.08.2006

@<TRIPOS>MOLECULE
ASD00843326
  94   99    0    0    0
SMALL
NO_CHARGES


@<TRIPOS>ATOM
   1 N1             0.9741     1.1211    -0.0441 N.ar    
   2 C2             1.1552    -0.1400    -0.3988 C.ar    
   3 C3             1.0472    -1.1610     0.5371 C.ar    
   4 C4             0.7467    -0.8421     1.8496 C.ar    
   5 C5             0.5640     0.4936     2.1813 C.ar    
   6 C6             0.6866     1.4561     1.1995 C.ar    
   7 C7             1.2539    -2.5967     0.1282 C.3     
   8 C8             0.9413    -3.5270     1.2808 C.2     
   9 C9             0.3876    -2.9371    -1.0860 C.3     
  10 C10           -1.0519    -2.6087    -0.7841 C.2     
  11 N11           -2.0168    -2.9340    -1.6669 N.am    
  12 O12           -1.3420    -2.0517     0.2535 O.2     
  13 C13           -3.4116    -2.5224    -1.4466 C.3     
  14 C14           -3.9223    -1.8339    -2.7167 C.3     
  15 N15           -3.7109    -2.7201    -3.8691 N.3     
  16 C16           -2.2811    -2.9748    -4.0901 C.3     
  17 C17           -1.7020    -3.7049    -2.8793 C.3     
  18 C18           -4.3409    -2.1717    -5.0775 C.3     
  19 C19           -3.9956    -3.0543    -6.2801 C.3     
  20 C20           -4.7039    -2.5130    -7.5241 C.3     
  21 N21           -6.1550    -2.5071    -7.2991 N.3     
  22 C22           -6.5150    -1.6288    -6.1786 C.3     
  23 C23           -5.8608    -2.1437    -4.8945 C.3     
  24 C24           -6.8756    -2.1243    -8.5206 C.3     
  25 O25           -0.1282    -3.6460     1.8403 O.2     
  26 N26            2.0701    -4.1965     1.5672 N.am    
  27 C27            2.7132    -2.8584    -0.1681 C.ar    
  28 C28            3.1275    -3.8306     0.7391 C.ar    
  29 C29            3.5829    -2.3370    -1.0921 C.ar    
  30 C30            4.9086    -2.7839    -1.1298 C.ar    
  31 C31            5.3322    -3.7610    -0.2208 C.ar    
  32 C32            4.4483    -4.2780     0.7019 C.ar    
  33 F33            6.6099    -4.1990    -0.2491 F       
  34 C34            1.7910    -6.8901     2.0579 C.ar    
  35 C35            0.5113    -7.1273     1.5779 C.ar    
  36 C36            2.7537    -7.8774     1.9722 C.ar    
  37 C37            2.4427    -9.1006     1.4081 C.ar    
  38 C38            1.1677    -9.3396     0.9289 C.ar    
  39 C39            0.2016    -8.3560     1.0127 C.ar    
  40 H40            0.9273   -10.2960     0.4887 H       
  41 O41           -0.4375    -6.1580     1.6615 O.3     
  42 C42           -1.7331    -6.4723     1.1471 C.3     
  43 C43           -8.3735    -2.3680    -8.3266 C.3     
  44 C44           -9.1241    -1.9693    -9.5989 C.3     
  45 S45            2.1903    -5.3286     2.7698 S.o2    
  46 O46            3.5643    -5.3901     3.1272 O.2     
  47 O47            1.1574    -5.0362     3.7009 O.2     
  48 O48            1.4490    -0.4396    -1.6891 O.3     
  49 C49            1.5055     0.6504    -2.6114 C.3     
  50 C50            1.9412     0.1346    -3.9844 C.3     
  51 F51            3.1660    -0.5309    -3.8653 F       
  52 F52            0.9761    -0.7496    -4.4782 F       
  53 C53            5.8244    -2.2464    -2.0906 C.1     
  54 N54            6.5508    -1.8201    -2.8528 N.1     
  55 H55            0.6560    -1.6147     2.5988 H       
  56 H56            0.3281     0.7765     3.1966 H       
  57 H57            0.5458     2.4966     1.4523 H       
  58 H58            0.7207    -2.3545    -1.9449 H       
  59 H59            0.4784    -3.9999    -1.3106 H       
  60 H60           -4.0230    -3.3995    -1.2344 H       
  61 H61           -3.4601    -1.8273    -0.6085 H       
  62 H62           -4.9862    -1.6207    -2.6122 H       
  63 H63           -3.3776    -0.9022    -2.8696 H       
  64 H64           -2.1547    -3.5891    -4.9816 H       
  65 H65           -1.7592    -2.0273    -4.2238 H       
  66 H66           -0.6211    -3.7941    -2.9881 H       
  67 H67           -2.1481    -4.6964    -2.8018 H       
  68 H68           -3.9753    -1.1596    -5.2516 H       
  69 H69           -2.9177    -3.0440    -6.4416 H       
  70 H70           -4.3258    -4.0754    -6.0888 H       
  71 H71           -4.3630    -1.4970    -7.7228 H       
  72 H72           -4.4716    -3.1477    -8.3793 H       
  73 H73           -6.1656    -0.6168    -6.3836 H       
  74 H74           -7.5981    -1.6211    -6.0566 H       
  75 H75           -6.2203    -3.1504    -4.6814 H       
  76 H76           -6.1155    -1.4827    -4.0660 H       
  77 H77           -6.7032    -1.0683    -8.7283 H       
  78 H78           -6.5155    -2.7227    -9.3575 H       
  79 H79            3.2454    -1.5839    -1.7887 H       
  80 H80            4.7803    -5.0316     1.4006 H       
  81 H81            3.7502    -7.6932     2.3458 H       
  82 H82            3.1969    -9.8708     1.3414 H       
  83 H83           -0.7942    -8.5434     0.6389 H       
  84 H84           -1.6543    -6.7143     0.0872 H       
  85 H85           -2.1402    -7.3279     1.6858 H       
  86 H86           -2.3931    -5.6144     1.2757 H       
  87 H87           -8.5460    -3.4240    -8.1189 H       
  88 H88           -8.7336    -1.7695    -7.4898 H       
  89 H89           -8.9516    -0.9133    -9.8066 H       
  90 H90           -8.7640    -2.5677   -10.4357 H       
  91 H91          -10.1912    -2.1429    -9.4607 H       
  92 H92            0.5203     1.1098    -2.6918 H       
  93 H93            2.2233     1.3899    -2.2565 H       
  94 H94            2.0494     0.9746    -4.6705 H       
@<TRIPOS>BOND
   1    1    2 ar
   2    1    6 ar
   3    2    3 ar
   4    2   48 1
   5    3    4 ar
   6    3    7 1
   7    4    5 ar
   8    4   55 1
   9    5    6 ar
  10    5   56 1
  11    6   57 1
  12    7    8 1
  13    7    9 1
  14    7   27 1
  15    8   25 2
  16    8   26 am
  17    9   10 1
  18    9   58 1
  19    9   59 1
  20   10   11 am
  21   10   12 2
  22   11   13 1
  23   11   17 1
  24   13   14 1
  25   13   60 1
  26   13   61 1
  27   14   15 1
  28   14   62 1
  29   14   63 1
  30   15   16 1
  31   15   18 1
  32   16   17 1
  33   16   64 1
  34   16   65 1
  35   17   66 1
  36   17   67 1
  37   18   19 1
  38   18   23 1
  39   18   68 1
  40   19   20 1
  41   19   69 1
  42   19   70 1
  43   20   21 1
  44   20   71 1
  45   20   72 1
  46   21   22 1
  47   21   24 1
  48   22   23 1
  49   22   73 1
  50   22   74 1
  51   23   75 1
  52   23   76 1
  53   24   43 1
  54   24   77 1
  55   24   78 1
  56   26   45 am
  57   26   28 1
  58   27   28 ar
  59   27   29 ar
  60   28   32 ar
  61   29   30 ar
  62   29   79 1
  63   30   31 ar
  64   30   53 1
  65   31   32 ar
  66   31   33 1
  67   32   80 1
  68   34   35 ar
  69   34   36 ar
  70   34   45 1
  71   35   41 1
  72   35   39 ar
  73   36   37 ar
  74   36   81 1
  75   37   38 ar
  76   37   82 1
  77   38   39 ar
  78   38   40 1
  79   39   83 1
  80   41   42 1
  81   42   84 1
  82   42   85 1
  83   42   86 1
  84   43   44 1
  85   43   87 1
  86   43   88 1
  87   44   89 1
  88   44   90 1
  89   44   91 1
  90   45   46 2
  91   45   47 2
  92   48   49 1
  93   49   50 1
  94   49   92 1
  95   49   93 1
  96   50   51 1
  97   50   52 1
  98   50   94 1
  99   53   54 3

#	End of record

