#	Name: ASD01208732
#	Creating user name:	WinNT
#	Creation time:	15. 06. 2019 19:10

#	Modifying user name:	WinNT
#	Modification time:	15. 06. 2019 19:10

#	Program:	/corina/corina34_cracker 3.40 0067  02.08.2006

@<TRIPOS>MOLECULE
ASD01208732
  50   53    0    0    0
SMALL
NO_CHARGES


@<TRIPOS>ATOM
   1 C1            -0.0507     1.3604    -0.4067 C.2     
   2 C2             0.0243     0.0688     0.2967 C.ar    
   3 C3             1.2622    -0.5716     0.4644 C.ar    
   4 C4             1.3236    -1.7852     1.1272 C.ar    
   5 C5             0.1649    -2.3648     1.6232 C.ar    
   6 C6            -1.0628    -1.7312     1.4577 C.ar    
   7 C7            -1.1364    -0.5220     0.8054 C.ar    
   8 O8             0.9613     1.8745    -0.8438 O.2     
   9 N9            -1.2413     1.9701    -0.5710 N.am    
  10 S10           -2.7861     4.1080    -1.5290 S.3     
  11 C11           -1.3121     3.1893    -1.2349 C.2     
  12 N12           -0.3027     3.8327    -1.7364 N.2     
  13 C13           -0.5611     4.9814    -2.3334 C.2     
  14 C14           -1.8439     5.3498    -2.3512 C.2     
  15 F15           -2.3354     6.4803    -2.9040 F       
  16 O16            2.3940    -0.0034    -0.0217 O.3     
  17 C17            3.5506    -0.7091     0.0675 C.ar    
  18 C18            3.9120    -1.5791    -0.9540 C.ar    
  19 C19            5.0847    -2.2966    -0.8677 C.ar    
  20 C20            5.9115    -2.1485     0.2492 C.ar    
  21 C21            5.5443    -1.2724     1.2742 C.ar    
  22 C22            4.3724    -0.5548     1.1774 C.ar    
  23 O23            8.0534    -2.8695     1.3599 O.3     
  24 C24            7.1684    -2.9153     0.3462 C.2     
  25 N25            7.6302    -3.7713    -0.5432 N.2     
  26 N26            8.7498    -4.2527    -0.1305 N.2     
  27 C27            9.0475    -3.7247     1.0370 C.2     
  28 C28           10.2125    -4.0047     1.8212 C.1     
  29 N29           11.1367    -4.2268     2.4434 N.1     
  30 O30            0.2290    -3.5551     2.2721 O.3     
  31 C31           -1.0011    -4.0963     2.7577 C.3     
  32 C32           -0.7310    -5.4309     3.4554 C.3     
  33 C33           -2.0283    -6.0017     3.9675 C.2     
  34 C34           -2.3941    -7.2108     3.6205 C.2     
  35 H35            2.2740    -2.2813     1.2580 H       
  36 H36           -1.9608    -2.1883     1.8465 H       
  37 H37           -2.0907    -0.0315     0.6827 H       
  38 H38           -2.0489     1.5581    -0.2259 H       
  39 H39            0.2160     5.5848    -2.7788 H       
  40 H40            3.2723    -1.6933    -1.8167 H       
  41 H41            5.3647    -2.9728    -1.6619 H       
  42 H42            6.1804    -1.1551     2.1391 H       
  43 H43            4.0899     0.1255     1.9672 H       
  44 H44           -1.4498    -3.4002     3.4664 H       
  45 H45           -1.6833    -4.2546     1.9224 H       
  46 H46           -0.2823    -6.1271     2.7467 H       
  47 H47           -0.0488    -5.2727     4.2907 H       
  48 H48           -2.6564    -5.4140     4.6205 H       
  49 H49           -1.7660    -7.7985     2.9674 H       
  50 H50           -3.3238    -7.6199     3.9875 H       
@<TRIPOS>BOND
   1    1    2 1
   2    1    8 2
   3    1    9 am
   4    2    3 ar
   5    2    7 ar
   6    3    4 ar
   7    3   16 1
   8    4    5 ar
   9    4   35 1
  10    5    6 ar
  11    5   30 1
  12    6    7 ar
  13    6   36 1
  14    7   37 1
  15    9   11 1
  16    9   38 1
  17   10   11 1
  18   10   14 1
  19   11   12 2
  20   12   13 1
  21   13   14 2
  22   13   39 1
  23   14   15 1
  24   16   17 1
  25   17   18 ar
  26   17   22 ar
  27   18   19 ar
  28   18   40 1
  29   19   20 ar
  30   19   41 1
  31   20   21 ar
  32   20   24 1
  33   21   22 ar
  34   21   42 1
  35   22   43 1
  36   23   24 1
  37   23   27 1
  38   24   25 2
  39   25   26 1
  40   26   27 2
  41   27   28 1
  42   28   29 3
  43   30   31 1
  44   31   32 1
  45   31   44 1
  46   31   45 1
  47   32   33 1
  48   32   46 1
  49   32   47 1
  50   33   34 2
  51   33   48 1
  52   34   49 1
  53   34   50 1

#	End of record

