#	Name: ASD01912296
#	Creating user name:	WinNT
#	Creation time:	15. 06. 2019 19:59

#	Modifying user name:	WinNT
#	Modification time:	15. 06. 2019 19:59

#	Program:	/corina/corina34_cracker 3.40 0067  02.08.2006

@<TRIPOS>MOLECULE
ASD01912296
  54   56    0    0    0
SMALL
NO_CHARGES


@<TRIPOS>ATOM
   1 C1            -0.0169     1.3937     0.0097 C.ar    
   2 C2             0.0021    -0.0041     0.0020 C.ar    
   3 C3             1.2200    -0.6586    -0.0132 C.ar    
   4 C4             2.3820     0.1017    -0.0202 C.ar    
   5 C5             2.2917     1.4816    -0.0120 C.ar    
   6 N6             1.1202     2.0835     0.0026 N.ar    
   7 C7             3.5515     2.3086    -0.0196 C.3     
   8 C8            -1.2694     2.0877     0.0194 C.1     
   9 C9            -2.2963     2.6567     0.0274 C.1     
  10 C10           -3.5488     3.3508     0.0371 C.2     
  11 N11           -3.6111     7.1939     1.1690 N.am    
  12 C12           -4.8645     6.4304     1.2214 C.3     
  13 C13           -4.8852     5.4347     0.0547 C.3     
  14 C14           -3.5723     4.6828     0.0444 C.2     
  15 C15           -2.2866     5.4804     0.0422 C.3     
  16 C16           -2.3311     6.4750     1.2091 C.3     
  17 S17           -3.6407     8.8460     1.0592 S.o2    
  18 O18           -2.3991     9.2324     0.4863 O.2     
  19 O19           -4.8981     9.1880     0.4924 O.2     
  20 C20           -3.6480     9.4780     2.7039 C.ar    
  21 C21           -2.4538     9.7472     3.3462 C.ar    
  22 C22           -2.4595    10.2430     4.6365 C.ar    
  23 C23           -3.6593    10.4700     5.2845 C.ar    
  24 C24           -4.8534    10.2017     4.6419 C.ar    
  25 C25           -4.8478     9.7100     3.3500 C.ar    
  26 C26           -3.6655    11.0096     6.6916 C.3     
  27 C27           -4.4096    12.3461     6.7220 C.3     
  28 C28           -4.3678    10.0137     7.6166 C.3     
  29 H29           -0.9211    -0.5645     0.0082 H       
  30 H30            1.2665    -1.7376    -0.0191 H       
  31 H31            3.3483    -0.3807    -0.0317 H       
  32 H32            3.8454     2.5135    -1.0490 H       
  33 H33            3.3719     3.2492     0.5010 H       
  34 H34            4.3485     1.7612     0.4837 H       
  35 H35           -4.4745     2.7944     0.0384 H       
  36 H36           -4.9231     5.8885     2.1653 H       
  37 H37           -5.7111     7.1115     1.1355 H       
  38 H38           -5.7089     4.7329     0.1857 H       
  39 H39           -5.0071     5.9731    -0.8852 H       
  40 H40           -1.4375     4.8082     0.1651 H       
  41 H41           -2.1928     6.0227    -0.8988 H       
  42 H42           -1.5099     7.1856     1.1152 H       
  43 H43           -2.2443     5.9358     2.1524 H       
  44 H44           -1.5165     9.5699     2.8400 H       
  45 H45           -1.5266    10.4527     5.1386 H       
  46 H46           -5.7908    10.3788     5.1482 H       
  47 H47           -5.7808     9.5038     2.8466 H       
  48 H48           -2.6395    11.1573     7.0286 H       
  49 H49           -5.4356    12.1985     6.3850 H       
  50 H50           -4.4141    12.7364     7.7397 H       
  51 H51           -3.9092    13.0557     6.0630 H       
  52 H52           -5.3938     9.8660     7.2796 H       
  53 H53           -3.8377     9.0615     7.5949 H       
  54 H54           -4.3723    10.4040     8.6343 H       
@<TRIPOS>BOND
   1    1    2 ar
   2    1    6 ar
   3    1    8 1
   4    2    3 ar
   5    2   29 1
   6    3    4 ar
   7    3   30 1
   8    4    5 ar
   9    4   31 1
  10    5    6 ar
  11    5    7 1
  12    7   32 1
  13    7   33 1
  14    7   34 1
  15    8    9 3
  16    9   10 1
  17   10   14 2
  18   10   35 1
  19   11   12 1
  20   11   16 1
  21   11   17 am
  22   12   13 1
  23   12   36 1
  24   12   37 1
  25   13   14 1
  26   13   38 1
  27   13   39 1
  28   14   15 1
  29   15   16 1
  30   15   40 1
  31   15   41 1
  32   16   42 1
  33   16   43 1
  34   17   18 2
  35   17   19 2
  36   17   20 1
  37   20   21 ar
  38   20   25 ar
  39   21   22 ar
  40   21   44 1
  41   22   23 ar
  42   22   45 1
  43   23   24 ar
  44   23   26 1
  45   24   25 ar
  46   24   46 1
  47   25   47 1
  48   26   27 1
  49   26   28 1
  50   26   48 1
  51   27   49 1
  52   27   50 1
  53   27   51 1
  54   28   52 1
  55   28   53 1
  56   28   54 1

#	End of record

