#	Name: ASD05740033
#	Creating user name:	WinNT
#	Creation time:	15. 06. 2019 21:02

#	Modifying user name:	WinNT
#	Modification time:	15. 06. 2019 21:02

#	Program:	/corina/corina34_cracker 3.40 0067  02.08.2006

@<TRIPOS>MOLECULE
ASD05740033
  44   47    0    0    0
SMALL
NO_CHARGES


@<TRIPOS>ATOM
   1 C1            -0.0225     1.8097     0.0120 C.3     
   2 C2             0.4315     1.6071     8.1138 C.3     
   3 C3             2.7506     2.5614     7.7974 C.2     
   4 C4             4.0125     2.5170     7.2235 C.2     
   5 C5             1.8043     1.5657     7.4936 C.2     
   6 C6             2.1409     0.5611     6.6322 C.2     
   7 C7             3.4237     0.5440     6.0687 C.2     
   8 O8             4.3148     1.4987     6.3665 O.3     
   9 C9             1.1444    -0.5170     6.2918 C.3     
  10 C10            0.4278    -0.1542     5.0167 C.ar    
  11 C11           -0.7975     0.4992     5.0517 C.ar    
  12 O12            3.7322    -0.3500     5.2983 O.2     
  13 C13            0.2848    -0.1083     2.6273 C.ar    
  14 N14           -0.8829     0.5097     2.7043 N.ar    
  15 C15           -1.4280     0.8180     3.8664 C.ar    
  16 N16            0.8226    -0.4138     1.3808 N.am    
  17 S17            0.0021    -0.0041     0.0020 S.o2    
  18 O18           -1.3056    -0.5216     0.2056 O.2     
  19 O19            0.8248    -0.4858    -1.0517 O.2     
  20 C20            4.8278     3.5682     7.6238 C.2     
  21 C21            4.2786     4.4383     8.4811 C.2     
  22 S22            2.6311     3.9619     8.8575 S.3     
  23 O23            4.9059     5.5268     8.9889 O.3     
  24 C24            4.2159     6.3155     9.8486 C.2     
  25 N25            2.9961     6.1065    10.2310 N.2     
  26 S26            4.8316     7.7268    10.5918 S.3     
  27 C27            3.2985     7.9692    11.4253 C.2     
  28 C28            2.4767     6.9778    11.0761 C.2     
  29 C29            0.9779    -0.4602     3.7837 C.ar    
  30 F30            2.1703    -1.0903     3.7029 F       
  31 H31            1.0001     2.1870     0.0043 H       
  32 H32           -0.5497     2.1708    -0.8711 H       
  33 H33           -0.5327     2.1613     0.9088 H       
  34 H34            0.3542     2.4760     8.7674 H       
  35 H35           -0.3204     1.6758     7.3277 H       
  36 H36            0.2678     0.6996     8.6949 H       
  37 H37            1.6659    -1.4648     6.1585 H       
  38 H38            0.4205    -0.6113     7.1013 H       
  39 H39           -1.2523     0.7549     5.9972 H       
  40 H40           -2.3806     1.3263     3.8898 H       
  41 H41            1.6782    -0.8667     1.3196 H       
  42 H42            5.8411     3.6768     7.2663 H       
  43 H43            3.0657     8.7773    12.1029 H       
  44 H44            1.4679     6.8957    11.4528 H       
@<TRIPOS>BOND
   1    1   17 1
   2    1   31 1
   3    1   32 1
   4    1   33 1
   5    2    5 1
   6    2   34 1
   7    2   35 1
   8    2   36 1
   9    3    4 2
  10    3    5 1
  11    3   22 1
  12    4   20 1
  13    4    8 1
  14    5    6 2
  15    6    7 1
  16    6    9 1
  17    7    8 1
  18    7   12 2
  19    9   10 1
  20    9   37 1
  21    9   38 1
  22   10   11 ar
  23   10   29 ar
  24   11   15 ar
  25   11   39 1
  26   13   14 ar
  27   13   16 1
  28   13   29 ar
  29   14   15 ar
  30   15   40 1
  31   16   17 am
  32   16   41 1
  33   17   18 2
  34   17   19 2
  35   20   21 2
  36   20   42 1
  37   21   22 1
  38   21   23 1
  39   23   24 1
  40   24   26 1
  41   24   25 2
  42   25   28 1
  43   26   27 1
  44   27   28 2
  45   27   43 1
  46   28   44 1
  47   29   30 1

#	End of record

