#	Name: ASD02440056
#	Creating user name:	WinNT
#	Creation time:	15. 06. 2019 20:21

#	Modifying user name:	WinNT
#	Modification time:	15. 06. 2019 20:21

#	Program:	/corina/corina34_cracker 3.40 0067  02.08.2006

@<TRIPOS>MOLECULE
ASD02440056
  63   67    0    0    0
SMALL
NO_CHARGES


@<TRIPOS>ATOM
   1 N1            -0.0665     1.2500     0.0443 N.am    
   2 C2            -0.0264    -0.1126    -0.0738 C.2     
   3 S3             1.6850    -0.5685    -0.1328 S.3     
   4 C4             2.2852     1.0954     0.0040 C.2     
   5 C5             1.0742     1.9177     0.0889 C.2     
   6 N6            -1.0568    -0.9252    -0.1318 N.2     
   7 C7            -1.3482     1.9561     0.1140 C.3     
   8 C8            -1.7782     2.0758     1.5533 C.ar    
   9 O9             1.1159     3.1297     0.1927 O.2     
  10 C10            3.5765     1.5135     0.0252 C.2     
  11 C11            4.6650     0.5313     0.1070 C.ar    
  12 C12            4.3861    -0.8011     0.4356 C.ar    
  13 C13            5.4104    -1.7178     0.5104 C.ar    
  14 C14            6.7198    -1.3228     0.2607 C.ar    
  15 C15            7.0024    -0.0014    -0.0660 C.ar    
  16 C16            5.9851     0.9224    -0.1492 C.ar    
  17 C17           -2.9487     1.1847     3.4430 C.ar    
  18 C18           -2.5512     1.0813     2.1261 C.ar    
  19 C19           -1.3935     3.1769     2.2977 C.ar    
  20 C20           -1.7836     3.2928     3.6158 C.ar    
  21 C21           -2.5685     2.2957     4.1984 C.ar    
  22 C22           -2.9908     2.4135     5.6091 C.2     
  23 O23           -3.6704     1.5427     6.1144 O.2     
  24 O24           -2.6223     3.4867     6.3352 O.3     
  25 O25            7.7263    -2.2308     0.3367 O.3     
  26 C26            7.8010    -3.1828    -0.6300 C.ar    
  27 C27            6.9452    -3.1338    -1.7212 C.ar    
  28 C28            7.0231    -4.1029    -2.7025 C.ar    
  29 C29            7.9526    -5.1213    -2.5979 C.ar    
  30 C30            8.8065    -5.1724    -1.5116 C.ar    
  31 C31            8.7369    -4.2024    -0.5306 C.ar    
  32 C32           -0.8584    -2.2752    -0.2507 C.ar    
  33 C33           -1.5921    -3.1631     0.5388 C.ar    
  34 C34           -1.3893    -4.5217     0.4153 C.ar    
  35 C35           -0.4577    -5.0069    -0.4920 C.ar    
  36 C36            0.2739    -4.1281    -1.2788 C.ar    
  37 C37            0.0740    -2.7681    -1.1660 C.ar    
  38 O38           -0.2608    -6.3471    -0.6101 O.3     
  39 C39            0.7130    -6.7783    -1.5630 C.3     
  40 H40           -1.2385     2.9515    -0.3164 H       
  41 H41           -2.1005     1.3995    -0.4449 H       
  42 H42            3.8032     2.5685    -0.0179 H       
  43 H43            3.3694    -1.1088     0.6304 H       
  44 H44            5.1965    -2.7456     0.7638 H       
  45 H45            8.0214     0.3001    -0.2589 H       
  46 H46            6.2057     1.9487    -0.4033 H       
  47 H47           -3.5526     0.4081     3.8886 H       
  48 H48           -2.8443     0.2224     1.5407 H       
  49 H49           -0.7862     3.9472     1.8459 H       
  50 H50           -1.4824     4.1526     4.1958 H       
  51 H51           -2.9227     3.5194     7.2538 H       
  52 H52            6.2186    -2.3390    -1.8030 H       
  53 H53            6.3573    -4.0653    -3.5520 H       
  54 H54            8.0114    -5.8784    -3.3659 H       
  55 H55            9.5316    -5.9689    -1.4323 H       
  56 H56            9.4071    -4.2402     0.3155 H       
  57 H57           -2.3169    -2.7865     1.2453 H       
  58 H58           -1.9560    -5.2092     1.0258 H       
  59 H59            0.9977    -4.5100    -1.9835 H       
  60 H60            0.6437    -2.0851    -1.7786 H       
  61 H61            0.7708    -7.8668    -1.5562 H       
  62 H62            0.4251    -6.4359    -2.5569 H       
  63 H63            1.6857    -6.3612    -1.3025 H       
@<TRIPOS>BOND
   1    1    2 1
   2    1    5 am
   3    1    7 1
   4    2    3 1
   5    2    6 2
   6    3    4 1
   7    4    5 1
   8    4   10 2
   9    5    9 2
  10    6   32 1
  11    7    8 1
  12    7   40 1
  13    7   41 1
  14    8   19 ar
  15    8   18 ar
  16   10   11 1
  17   10   42 1
  18   11   12 ar
  19   11   16 ar
  20   12   13 ar
  21   12   43 1
  22   13   14 ar
  23   13   44 1
  24   14   15 ar
  25   14   25 1
  26   15   16 ar
  27   15   45 1
  28   16   46 1
  29   17   18 ar
  30   17   21 ar
  31   17   47 1
  32   18   48 1
  33   19   20 ar
  34   19   49 1
  35   20   21 ar
  36   20   50 1
  37   21   22 1
  38   22   23 2
  39   22   24 1
  40   24   51 1
  41   25   26 1
  42   26   27 ar
  43   26   31 ar
  44   27   28 ar
  45   27   52 1
  46   28   29 ar
  47   28   53 1
  48   29   30 ar
  49   29   54 1
  50   30   31 ar
  51   30   55 1
  52   31   56 1
  53   32   33 ar
  54   32   37 ar
  55   33   34 ar
  56   33   57 1
  57   34   35 ar
  58   34   58 1
  59   35   36 ar
  60   35   38 1
  61   36   37 ar
  62   36   59 1
  63   37   60 1
  64   38   39 1
  65   39   61 1
  66   39   62 1
  67   39   63 1

#	End of record

