#	Name: ASD03090196
#	Creating user name:	WinNT
#	Creation time:	15. 06. 2019 20:28

#	Modifying user name:	WinNT
#	Modification time:	15. 06. 2019 20:28

#	Program:	/corina/corina34_cracker 3.40 0067  02.08.2006

@<TRIPOS>MOLECULE
ASD03090196
  24   25    0    0    0
SMALL
NO_CHARGES


@<TRIPOS>ATOM
   1 N1            -0.0178     1.4648     0.0101 N.3     
   2 C2             0.0021    -0.0041     0.0020 C.3     
   3 N3            -5.2787    -1.9518    -0.2330 N.pl3   
   4 C4            -5.4494    -2.0020    -1.5896 C.2     
   5 C5            -4.3331    -1.5838    -2.2070 C.2     
   6 C6            -3.3687    -1.2377    -1.1601 C.ar    
   7 C7            -2.0587    -0.7538    -1.1688 C.ar    
   8 C8            -1.4117    -0.5257     0.0127 C.ar    
   9 C9            -2.0460    -0.7709     1.2230 C.ar    
  10 C10           -3.3383    -1.2489     1.2550 C.ar    
  11 C11           -4.0162    -1.4883     0.0630 C.ar    
  12 Br12          -4.1873    -1.5788     2.9122 Br      
  13 C13           -6.7043    -2.4596    -2.2873 C.3     
  14 F14           -7.6620    -2.8224    -1.3342 F       
  15 F15           -7.2042    -1.4192    -3.0779 F       
  16 F16           -6.4119    -3.5619    -3.0976 F       
  17 H17            0.9191     1.8392     0.0032 H       
  18 H18           -0.5563     1.8234    -0.7642 H       
  19 H19            0.5123    -0.3556    -0.8948 H       
  20 H20            0.5293    -0.3651     0.8851 H       
  21 H21           -5.9486    -2.2015     0.4226 H       
  22 H22           -4.1758    -1.5160    -3.2733 H       
  23 H23           -1.5585    -0.5611    -2.1064 H       
  24 H24           -1.5214    -0.5856     2.1487 H       
@<TRIPOS>BOND
   1    1    2 1
   2    1   17 1
   3    1   18 1
   4    2    8 1
   5    2   19 1
   6    2   20 1
   7    3    4 1
   8    3   11 1
   9    3   21 1
  10    4    5 2
  11    4   13 1
  12    5    6 1
  13    5   22 1
  14    6    7 ar
  15    6   11 ar
  16    7    8 ar
  17    7   23 1
  18    8    9 ar
  19    9   10 ar
  20    9   24 1
  21   10   11 ar
  22   10   12 1
  23   13   14 1
  24   13   15 1
  25   13   16 1

#	End of record

