#	Name: ASD03930017
#	Creating user name:	WinNT
#	Creation time:	15. 06. 2019 20:47

#	Modifying user name:	WinNT
#	Modification time:	15. 06. 2019 20:47

#	Program:	/corina/corina34_cracker 3.40 0067  02.08.2006

@<TRIPOS>MOLECULE
ASD03930017
  35   37    0    0    0
SMALL
NO_CHARGES


@<TRIPOS>ATOM
   1 C1            -0.0154     1.3711    -0.0027 C.ar    
   2 C2             0.0024    -0.0047     0.0098 C.ar    
   3 C3             1.2159    -0.6940     0.0369 C.ar    
   4 C4             2.4160    -0.0371     0.0494 C.ar    
   5 C5             2.4329     1.3651     0.0048 C.ar    
   6 C6             1.2000     2.0753    -0.0025 C.ar    
   7 C7             3.6511    -0.8935     0.1349 C.3     
   8 N8             4.7830    -0.2704    -0.5620 N.am    
   9 S9             5.1747     1.2815    -0.0892 S.o2    
  10 C10            3.6186     2.1210    -0.0543 C.ar    
  11 C11            3.5851     3.4776    -0.0809 C.ar    
  12 C12            2.3731     4.1654    -0.0562 C.ar    
  13 C13            1.1989     3.4807    -0.0164 C.ar    
  14 O14            5.6313     1.2015     1.2541 O.2     
  15 O15            5.9312     1.8569    -1.1456 O.2     
  16 C16            5.5266    -0.9710    -1.6120 C.3     
  17 N17           -1.1995    -0.7149    -0.0043 N.pl3   
  18 C18           -2.4740     0.0000     0.0996 C.3     
  19 C19           -1.1863    -2.1750    -0.1229 C.3     
  20 H20           -0.9545     1.9043    -0.0171 H       
  21 H21            1.2073    -1.7739     0.0487 H       
  22 H22            3.9132    -1.0378     1.1830 H       
  23 H23            3.4444    -1.8637    -0.3169 H       
  24 H24            4.5109     4.0322    -0.1214 H       
  25 H25            2.3666     5.2453    -0.0688 H       
  26 H26            0.2625     4.0185     0.0050 H       
  27 H27            5.0679    -0.7674    -2.5796 H       
  28 H28            6.5596    -0.6235    -1.6192 H       
  29 H29            5.5054    -2.0435    -1.4183 H       
  30 H30           -2.8271     0.2601    -0.8983 H       
  31 H31           -3.2093    -0.6376     0.5905 H       
  32 H32           -2.3339     0.9094     0.6840 H       
  33 H33           -0.1640    -2.5172    -0.2840 H       
  34 H34           -1.5773    -2.6176     0.7933 H       
  35 H35           -1.8076    -2.4767    -0.9661 H       
@<TRIPOS>BOND
   1    1    2 ar
   2    1    6 ar
   3    1   20 1
   4    2    3 ar
   5    2   17 1
   6    3    4 ar
   7    3   21 1
   8    4    5 ar
   9    4    7 1
  10    5    6 ar
  11    5   10 ar
  12    6   13 ar
  13    7    8 1
  14    7   22 1
  15    7   23 1
  16    8    9 am
  17    8   16 1
  18    9   10 1
  19    9   14 2
  20    9   15 2
  21   10   11 ar
  22   11   12 ar
  23   11   24 1
  24   12   13 ar
  25   12   25 1
  26   13   26 1
  27   16   27 1
  28   16   28 1
  29   16   29 1
  30   17   18 1
  31   17   19 1
  32   18   30 1
  33   18   31 1
  34   18   32 1
  35   19   33 1
  36   19   34 1
  37   19   35 1

#	End of record

