#	Name: ASD01812737
#	Creating user name:	WinNT
#	Creation time:	15. 06. 2019 19:29

#	Modifying user name:	WinNT
#	Modification time:	15. 06. 2019 19:29

#	Program:	/corina/corina34_cracker 3.40 0067  02.08.2006

@<TRIPOS>MOLECULE
ASD01812737
  54   57    0    0    0
SMALL
NO_CHARGES


@<TRIPOS>ATOM
   1 C1            -0.0166     1.3764     0.0096 C.ar    
   2 C2             0.0021    -0.0041     0.0020 C.ar    
   3 C3             1.2089    -0.6872    -0.0127 C.ar    
   4 C4             2.3941     0.0075    -0.0203 C.ar    
   5 C5             2.3941     1.4057    -0.0132 C.ar    
   6 C6             1.1719     2.0915     0.0021 C.ar    
   7 C7             3.8413    -0.4177    -0.0364 C.3     
   8 N8             4.6313     0.8189    -0.0378 N.am    
   9 C9             3.7915     1.8684    -0.0244 C.2     
  10 C10            6.0942     0.8968    -0.0511 C.3     
  11 C11            6.5825     0.9304    -1.4764 C.ar    
  12 C12            6.7421     2.1434    -2.1218 C.ar    
  13 C13            7.1894     2.1798    -3.4270 C.ar    
  14 C14            7.4804     0.9922    -4.0944 C.ar    
  15 C15            7.3179    -0.2266    -3.4397 C.ar    
  16 C16            6.8750    -0.2515    -2.1327 C.ar    
  17 O17            1.1515     3.4479     0.0091 O.3     
  18 O18            4.1370     3.0341    -0.0215 O.2     
  19 C19           -0.1314     4.0773     0.0243 C.3     
  20 C20            8.2816    -0.0558    -6.2669 C.2     
  21 C21            7.9615     1.0253    -5.4986 C.2     
  22 C22            8.1704     2.1785    -6.2799 C.2     
  23 N23            8.5945     1.8003    -7.4565 N.2     
  24 N24            8.6726     0.4024    -7.4731 N.pl3   
  25 C25            9.1050    -0.4203    -8.6055 C.3     
  26 C26            0.0461     5.5969     0.0302 C.3     
  27 C27           -1.3231     6.2708    -0.0793 C.3     
  28 O28            0.6783     5.9978     1.2475 O.3     
  29 C29           -1.1383     7.7849    -0.1988 C.3     
  30 H30           -0.9604     1.9015     0.0169 H       
  31 H31           -0.9272    -0.5544     0.0079 H       
  32 H32            1.2170    -1.7672    -0.0179 H       
  33 H33            4.0688    -1.0067     0.8521 H       
  34 H34            4.0515    -0.9977    -0.9350 H       
  35 H35            6.4145     1.8024     0.4641 H       
  36 H36            6.5091     0.0250     0.4546 H       
  37 H37            6.5159     3.0635    -1.6036 H       
  38 H38            7.3133     3.1274    -3.9301 H       
  39 H39            7.5421    -1.1503    -3.9526 H       
  40 H40            6.7526    -1.1957    -1.6229 H       
  41 H41           -0.6922     3.7805    -0.8620 H       
  42 H42           -0.6756     3.7715     0.9178 H       
  43 H43            8.2347    -1.0909    -5.9624 H       
  44 H44            8.0079     3.1978    -5.9619 H       
  45 H45            8.2417    -0.6750    -9.2202 H       
  46 H46            9.8260     0.1360    -9.2044 H       
  47 H47            9.5691    -1.3341    -8.2344 H       
  48 H48            0.6659     5.8936    -0.8159 H       
  49 H49           -1.8423     5.8973    -0.9620 H       
  50 H50           -1.9111     6.0456     0.8105 H       
  51 H51            0.1814     5.7655     2.0438 H       
  52 H52           -0.5503     8.0100    -1.0886 H       
  53 H53           -2.1137     8.2649    -0.2769 H       
  54 H54           -0.6191     8.1583     0.6838 H       
@<TRIPOS>BOND
   1    1    2 ar
   2    1    6 ar
   3    1   30 1
   4    2    3 ar
   5    2   31 1
   6    3    4 ar
   7    3   32 1
   8    4    7 1
   9    4    5 ar
  10    5    6 ar
  11    5    9 1
  12    6   17 1
  13    7    8 1
  14    7   33 1
  15    7   34 1
  16    8    9 am
  17    8   10 1
  18    9   18 2
  19   10   11 1
  20   10   35 1
  21   10   36 1
  22   11   12 ar
  23   11   16 ar
  24   12   13 ar
  25   12   37 1
  26   13   14 ar
  27   13   38 1
  28   14   15 ar
  29   14   21 1
  30   15   16 ar
  31   15   39 1
  32   16   40 1
  33   17   19 1
  34   19   26 1
  35   19   41 1
  36   19   42 1
  37   20   21 2
  38   20   24 1
  39   20   43 1
  40   21   22 1
  41   22   23 2
  42   22   44 1
  43   23   24 1
  44   24   25 1
  45   25   45 1
  46   25   46 1
  47   25   47 1
  48   26   27 1
  49   26   28 1
  50   26   48 1
  51   27   29 1
  52   27   49 1
  53   27   50 1
  54   28   51 1
  55   29   52 1
  56   29   53 1
  57   29   54 1

#	End of record

