#	Name: ASD01911800
#	Creating user name:	WinNT
#	Creation time:	15. 06. 2019 19:58

#	Modifying user name:	WinNT
#	Modification time:	15. 06. 2019 19:58

#	Program:	/corina/corina34_cracker 3.40 0067  02.08.2006

@<TRIPOS>MOLECULE
ASD01911800
  38   40    0    0    0
SMALL
NO_CHARGES


@<TRIPOS>ATOM
   1 N1            -0.5139     1.5987     0.5630 N.pl3   
   2 C2            -0.7998     0.3758     1.1321 C.2     
   3 C3             0.2483     2.3328     2.6672 C.2     
   4 N4            -0.0311     1.1450     3.2132 N.2     
   5 C5            -0.5418     0.1706     2.4948 C.2     
   6 C6            -1.3221    -0.4253     0.1178 C.2     
   7 C7            -1.3169     0.3902    -1.0302 C.2     
   8 N8            -0.8192     1.5708    -0.6844 N.2     
   9 N9            -1.7551    -1.7481     0.2181 N.pl3   
  10 C10           -0.8870    -2.7944    -0.1082 C.ar    
  11 C11           -1.2791    -4.1144     0.0930 C.ar    
  12 C12            0.3659    -2.5192    -0.6391 C.ar    
  13 C13            1.2215    -3.5553    -0.9611 C.ar    
  14 C14            0.8317    -4.8662    -0.7559 C.ar    
  15 C15           -0.4180    -5.1459    -0.2315 C.ar    
  16 F16           -2.4992    -4.3872     0.6050 F       
  17 I17            2.1332    -6.4326    -1.2475 I       
  18 C18           -1.7762     0.0005    -2.3755 C.2     
  19 N19           -1.8116     0.9136    -3.3662 N.am    
  20 O20           -2.1232    -1.1449    -2.5915 O.2     
  21 O21           -2.2528     0.5393    -4.6586 O.3     
  22 C22           -2.2387     1.6061    -5.6092 C.3     
  23 C23           -2.7320     1.0900    -6.9624 C.3     
  24 O24           -4.1023     0.6996    -6.8526 O.3     
  25 C25            0.0191     2.5805     1.3629 C.2     
  26 H26            0.6672     3.1123     3.2862 H       
  27 H27           -0.7621    -0.7830     2.9515 H       
  28 H28           -2.6582    -1.9417     0.5142 H       
  29 H29            0.6715    -1.4960    -0.8006 H       
  30 H30            2.1962    -3.3410    -1.3741 H       
  31 H31           -0.7194    -6.1707    -0.0724 H       
  32 H32           -1.5349     1.8272    -3.1939 H       
  33 H33           -2.8927     2.4076    -5.2657 H       
  34 H34           -1.2224     1.9861    -5.7139 H       
  35 H35           -2.6377     1.8789    -7.7086 H       
  36 H36           -2.1326     0.2310    -7.2641 H       
  37 H37           -4.4820     0.3614    -7.6751 H       
  38 H38            0.2542     3.5489     0.9467 H       
@<TRIPOS>BOND
   1    1    2 1
   2    1   25 1
   3    1    8 1
   4    2    6 2
   5    2    5 1
   6    3    4 1
   7    3   25 2
   8    3   26 1
   9    4    5 2
  10    5   27 1
  11    6    7 1
  12    6    9 1
  13    7    8 2
  14    7   18 1
  15    9   10 1
  16    9   28 1
  17   10   11 ar
  18   10   12 ar
  19   11   16 1
  20   11   15 ar
  21   12   13 ar
  22   12   29 1
  23   13   14 ar
  24   13   30 1
  25   14   15 ar
  26   14   17 1
  27   15   31 1
  28   18   19 am
  29   18   20 2
  30   19   21 1
  31   19   32 1
  32   21   22 1
  33   22   23 1
  34   22   33 1
  35   22   34 1
  36   23   24 1
  37   23   35 1
  38   23   36 1
  39   24   37 1
  40   25   38 1

#	End of record

