#	Name: ASD00180004
#	Creating user name:	WinNT
#	Creation time:	15. 06. 2019 18:33

#	Modifying user name:	WinNT
#	Modification time:	15. 06. 2019 18:33

#	Program:	/corina/corina34_cracker 3.40 0067  02.08.2006

@<TRIPOS>MOLECULE
ASD00180004
  50   54    0    0    0
SMALL
NO_CHARGES


@<TRIPOS>ATOM
   1 C1            -0.0164     1.3849     0.0390 C.ar    
   2 C2             0.0010     0.0019     0.0162 C.ar    
   3 C3             1.2045    -0.6797    -0.0113 C.ar    
   4 C4             2.3954     0.0175    -0.0157 C.ar    
   5 C5             2.3841     1.4113     0.0071 C.ar    
   6 C6             1.1683     2.0927     0.0343 C.ar    
   7 C7             3.6603     2.1661     0.0029 C.ar    
   8 N8             3.6206     3.4896     0.0250 N.ar    
   9 C9             4.7424     4.1994     0.0221 C.ar    
  10 C10            5.9778     3.5286    -0.0048 C.ar    
  11 C11            5.9727     2.1219    -0.0279 C.ar    
  12 N12            4.8048     1.4913    -0.0174 N.ar    
  13 N13            5.0400     5.5392     0.0407 N.pl3   
  14 C14            6.3981     5.6559     0.0256 C.2     
  15 N15            6.9459     4.4754    -0.0011 N.2     
  16 C16            4.0753     6.6413     0.0707 C.3     
  17 C17            3.6683     6.9141     1.4958 C.ar    
  18 C18            4.3803     7.8229     2.2560 C.ar    
  19 C19            4.0071     8.0732     3.5633 C.ar    
  20 C20            2.9215     7.4149     4.1102 C.ar    
  21 C21            2.2089     6.5067     3.3497 C.ar    
  22 C22            2.5796     6.2597     2.0410 C.ar    
  23 N23            7.1602     1.4107    -0.0548 N.pl3   
  24 C24            7.1421     0.0138     0.0433 C.ar    
  25 C25            8.0801    -0.7429    -0.6468 C.ar    
  26 C26            8.0623    -2.1201    -0.5501 C.ar    
  27 C27            7.1065    -2.7487     0.2373 C.ar    
  28 C28            6.1685    -1.9920     0.9274 C.ar    
  29 C29            6.1898    -0.6145     0.8352 C.ar    
  30 N30            7.0882    -4.1446     0.3349 N.pl3   
  31 H31           -0.9590     1.9118     0.0559 H       
  32 H32           -0.9285    -0.5479     0.0203 H       
  33 H33            1.2121    -1.7595    -0.0289 H       
  34 H34            3.3344    -0.5156    -0.0365 H       
  35 H35            1.1535     3.1724     0.0520 H       
  36 H36            6.9398     6.5902     0.0344 H       
  37 H37            4.5317     7.5352    -0.3544 H       
  38 H38            3.1955     6.3700    -0.5128 H       
  39 H39            5.2285     8.3373     1.8287 H       
  40 H40            4.5638     8.7827     4.1574 H       
  41 H41            2.6303     7.6098     5.1317 H       
  42 H42            1.3610     5.9921     3.7771 H       
  43 H43            2.0229     5.5502     1.4469 H       
  44 H44            8.0047     1.8799    -0.1415 H       
  45 H45            8.8232    -0.2541    -1.2593 H       
  46 H46            8.7916    -2.7086    -1.0870 H       
  47 H47            5.4249    -2.4807     1.5394 H       
  48 H48            5.4604    -0.0260     1.3718 H       
  49 H49            7.7431    -4.6732    -0.1473 H       
  50 H50            6.4205    -4.5836     0.8848 H       
@<TRIPOS>BOND
   1    1    2 ar
   2    1    6 ar
   3    1   31 1
   4    2    3 ar
   5    2   32 1
   6    3    4 ar
   7    3   33 1
   8    4    5 ar
   9    4   34 1
  10    5    6 ar
  11    5    7 1
  12    6   35 1
  13    7    8 ar
  14    7   12 ar
  15    8    9 ar
  16    9   10 ar
  17    9   13 1
  18   10   11 ar
  19   10   15 1
  20   11   12 ar
  21   11   23 1
  22   13   14 1
  23   13   16 1
  24   14   15 2
  25   14   36 1
  26   16   17 1
  27   16   37 1
  28   16   38 1
  29   17   18 ar
  30   17   22 ar
  31   18   19 ar
  32   18   39 1
  33   19   20 ar
  34   19   40 1
  35   20   21 ar
  36   20   41 1
  37   21   22 ar
  38   21   42 1
  39   22   43 1
  40   23   24 1
  41   23   44 1
  42   24   25 ar
  43   24   29 ar
  44   25   26 ar
  45   25   45 1
  46   26   27 ar
  47   26   46 1
  48   27   28 ar
  49   27   30 1
  50   28   29 ar
  51   28   47 1
  52   29   48 1
  53   30   49 1
  54   30   50 1

#	End of record

