#	Name: ASD01913764
#	Creating user name:	WinNT
#	Creation time:	15. 06. 2019 20:02

#	Modifying user name:	WinNT
#	Modification time:	15. 06. 2019 20:02

#	Program:	/corina/corina34_cracker 3.40 0067  02.08.2006

@<TRIPOS>MOLECULE
ASD01913764
  55   57    0    0    0
SMALL
NO_CHARGES


@<TRIPOS>ATOM
   1 O1            -0.0163     1.3507     0.0095 O.3     
   2 C2             0.0021    -0.0041     0.0020 C.ar    
   3 C3            -1.1999    -0.7051     0.0097 C.ar    
   4 C4            -1.1799    -2.0847     0.0017 C.ar    
   5 C5             0.0628    -2.7339    -0.0141 C.ar    
   6 C6             1.2331    -1.9595    -0.0211 C.ar    
   7 N7             1.1632    -0.6396    -0.0180 N.ar    
   8 C8             0.1386    -4.2048    -0.0228 C.2     
   9 N9            -0.9923    -4.9380    -0.0155 N.am    
  10 O10            1.2218    -4.7578    -0.0365 O.2     
  11 C11            1.2480     2.0167     0.0010 C.3     
  12 C12            1.0303     3.5079     0.0111 C.ar    
  13 C13            0.9419     4.1850     1.2128 C.ar    
  14 C14            0.7418     5.5531     1.2236 C.ar    
  15 C15            0.6298     6.2449     0.0328 C.ar    
  16 C16            0.7186     5.5676    -1.1718 C.ar    
  17 C17            0.9247     4.1987    -1.1815 C.ar    
  18 C18           -0.9168    -6.4010    -0.0241 C.3     
  19 F19            0.6093     6.2430    -2.3368 F       
  20 O20            2.4424    -2.5687    -0.0359 O.3     
  21 C21            3.5946    -1.7235    -0.0424 C.3     
  22 C22           -2.1900    -6.9810     0.5951 C.3     
  23 C23           -0.7793    -6.8961    -1.4652 C.3     
  24 C24           -2.1113    -8.5089     0.5861 C.3     
  25 C25           -3.3845    -9.0889     1.2053 C.3     
  26 C26           -3.5220    -8.5938     2.6464 C.3     
  27 C27           -3.6008    -7.0659     2.6554 C.3     
  28 C28           -2.3276    -6.4859     2.0362 C.3     
  29 H29           -2.1402    -0.1740     0.0223 H       
  30 H30           -2.0995    -2.6510     0.0077 H       
  31 H31           -1.8561    -4.4969    -0.0046 H       
  32 H32            1.8174     1.7267     0.8840 H       
  33 H33            1.8004     1.7362    -0.8958 H       
  34 H34            1.0289     3.6450     2.1441 H       
  35 H35            0.6725     6.0811     2.1632 H       
  36 H36            0.4728     7.3134     0.0415 H       
  37 H37            0.9941     3.6694    -2.1203 H       
  38 H38           -0.0516    -6.7236     0.5551 H       
  39 H39            4.4953    -2.3372    -0.0543 H       
  40 H40            3.5752    -1.0895    -0.9288 H       
  41 H41            3.5922    -1.0990     0.8511 H       
  42 H42           -3.0553    -6.6584     0.0159 H       
  43 H43           -1.6445    -6.5735    -2.0444 H       
  44 H44            0.1278    -6.4829    -1.9063 H       
  45 H45           -0.7231    -7.9847    -1.4716 H       
  46 H46           -2.0132    -8.8617    -0.4406 H       
  47 H47           -1.2460    -8.8316     1.1653 H       
  48 H48           -4.2497    -8.7663     0.6261 H       
  49 H49           -3.3283   -10.1775     1.1989 H       
  50 H50           -4.4291    -9.0070     3.0875 H       
  51 H51           -2.6568    -8.9164     3.2256 H       
  52 H52           -4.4661    -6.7433     2.0762 H       
  53 H53           -3.6988    -6.7131     3.6821 H       
  54 H54           -1.4624    -6.8085     2.6154 H       
  55 H55           -2.3837    -5.3973     2.0426 H       
@<TRIPOS>BOND
   1    1    2 1
   2    1   11 1
   3    2    3 ar
   4    2    7 ar
   5    3    4 ar
   6    3   29 1
   7    4    5 ar
   8    4   30 1
   9    5    6 ar
  10    5    8 1
  11    6    7 ar
  12    6   20 1
  13    8    9 am
  14    8   10 2
  15    9   18 1
  16    9   31 1
  17   11   12 1
  18   11   32 1
  19   11   33 1
  20   12   13 ar
  21   12   17 ar
  22   13   14 ar
  23   13   34 1
  24   14   15 ar
  25   14   35 1
  26   15   16 ar
  27   15   36 1
  28   16   17 ar
  29   16   19 1
  30   17   37 1
  31   18   22 1
  32   18   23 1
  33   18   38 1
  34   20   21 1
  35   21   39 1
  36   21   40 1
  37   21   41 1
  38   22   24 1
  39   22   28 1
  40   22   42 1
  41   23   43 1
  42   23   44 1
  43   23   45 1
  44   24   25 1
  45   24   46 1
  46   24   47 1
  47   25   26 1
  48   25   48 1
  49   25   49 1
  50   26   27 1
  51   26   50 1
  52   26   51 1
  53   27   28 1
  54   27   52 1
  55   27   53 1
  56   28   54 1
  57   28   55 1

#	End of record

