#	Name: ASD05430055
#	Creating user name:	WinNT
#	Creation time:	15. 06. 2019 20:59

#	Modifying user name:	WinNT
#	Modification time:	15. 06. 2019 20:59

#	Program:	/corina/corina34_cracker 3.40 0067  02.08.2006

@<TRIPOS>MOLECULE
ASD05430055
  63   68    0    0    0
SMALL
NO_CHARGES


@<TRIPOS>ATOM
   1 C1             0.0201     1.2506    -0.8303 C.ar    
   2 C2             0.0832    -0.1392    -0.9230 C.ar    
   3 C3             1.3087    -0.7885    -0.8510 C.ar    
   4 C4             2.4684    -0.0623    -0.6872 C.ar    
   5 C5             2.4130     1.3322    -0.5935 C.ar    
   6 C6             1.1791     1.9857    -0.6663 C.ar    
   7 O7             4.9006     0.1193     0.0316 O.3     
   8 C8             4.8204     1.4747    -0.1956 C.2     
   9 C9             3.6502     2.1096    -0.4185 C.2     
  10 C10            5.8188    -0.2802     1.0517 C.3     
  11 C11            7.2642     0.1521     0.7820 C.3     
  12 N12            7.2512     1.5557     0.3729 N.pl3   
  13 C13            6.1254     2.1806    -0.1753 C.2     
  14 C14           -1.3180    -1.8545    -2.0298 C.2     
  15 N15           -1.0938    -0.8833    -1.0888 N.pl3   
  16 C16           -2.5711    -2.3069    -1.8326 C.2     
  17 N17           -3.1017    -1.6339    -0.8010 N.2     
  18 C18           -2.2265    -0.7782    -0.3470 C.2     
  19 C19           -3.2584    -3.3831    -2.6330 C.3     
  20 C20            8.2958     2.5739     0.4445 C.3     
  21 O21            7.8208     3.5972    -0.4564 O.3     
  22 N22            6.4315     3.3471    -0.6261 N.2     
  23 C23            8.4173     3.1137     1.8463 C.ar    
  24 C24            9.6341     2.0096    -0.0365 C.3     
  25 O25           10.6589     2.9872     0.1529 O.3     
  26 C26            8.0303     2.3362     2.9218 C.ar    
  27 C27            8.9211     4.3840     2.0559 C.ar    
  28 C28            9.0338     4.8797     3.3410 C.ar    
  29 C29            8.6417     4.1039     4.4186 C.ar    
  30 C30            8.1418     2.8301     4.2077 C.ar    
  31 F31            8.7514     4.5876     5.6753 F       
  32 C32           -1.1712     3.3083    -0.8043 C.3     
  33 O33           -1.1809     1.8831    -0.9069 O.3     
  34 C34            5.3405     0.0614     2.4688 C.3     
  35 C35            5.8913    -1.3096     2.8975 C.3     
  36 C36            5.6925    -1.7590     1.4396 C.3     
  37 H37            1.3530    -1.8652    -0.9233 H       
  38 H38            3.4201    -0.5700    -0.6309 H       
  39 H39            1.1317     3.0623    -0.5948 H       
  40 H40            3.6220     3.1880    -0.4684 H       
  41 H41            7.8575     0.0388     1.6893 H       
  42 H42            7.6885    -0.4593    -0.0145 H       
  43 H43           -0.6245    -2.1895    -2.7869 H       
  44 H44           -2.3777    -0.1007     0.4804 H       
  45 H45           -3.0651    -4.3542    -2.1774 H       
  46 H46           -4.3321    -3.1956    -2.6471 H       
  47 H47           -2.8752    -3.3777    -3.6534 H       
  48 H48            9.8768     1.1134     0.5345 H       
  49 H49            9.5630     1.7580    -1.0947 H       
  50 H50           11.5366     2.6970    -0.1309 H       
  51 H51            7.6404     1.3426     2.7571 H       
  52 H52            9.2269     4.9889     1.2152 H       
  53 H53            9.4281     5.8718     3.5046 H       
  54 H54            7.8352     2.2241     5.0476 H       
  55 H55           -0.7470     3.6006     0.1563 H       
  56 H56           -0.5681     3.7265    -1.6102 H       
  57 H57           -2.1912     3.6851    -0.8807 H       
  58 H58            5.8677     0.9036     2.9168 H       
  59 H59            4.2571     0.1437     2.5562 H       
  60 H60            6.9360    -1.2827     3.2074 H       
  61 H61            5.2518    -1.8344     3.6072 H       
  62 H62            4.7064    -2.1797     1.2427 H       
  63 H63            6.5030    -2.3811     1.0598 H       
@<TRIPOS>BOND
   1    1    2 ar
   2    1    6 ar
   3    1   33 1
   4    2    3 ar
   5    2   15 1
   6    3    4 ar
   7    3   37 1
   8    4    5 ar
   9    4   38 1
  10    5    6 ar
  11    5    9 1
  12    6   39 1
  13    7    8 1
  14    7   10 1
  15    8    9 2
  16    8   13 1
  17    9   40 1
  18   10   11 1
  19   10   34 1
  20   10   36 1
  21   11   12 1
  22   11   41 1
  23   11   42 1
  24   12   13 1
  25   12   20 1
  26   13   22 2
  27   14   15 1
  28   14   16 2
  29   14   43 1
  30   15   18 1
  31   16   17 1
  32   16   19 1
  33   17   18 2
  34   18   44 1
  35   19   45 1
  36   19   46 1
  37   19   47 1
  38   20   21 1
  39   20   23 1
  40   20   24 1
  41   21   22 1
  42   23   26 ar
  43   23   27 ar
  44   24   25 1
  45   24   48 1
  46   24   49 1
  47   25   50 1
  48   26   30 ar
  49   26   51 1
  50   27   28 ar
  51   27   52 1
  52   28   29 ar
  53   28   53 1
  54   29   30 ar
  55   29   31 1
  56   30   54 1
  57   32   33 1
  58   32   55 1
  59   32   56 1
  60   32   57 1
  61   34   35 1
  62   34   58 1
  63   34   59 1
  64   35   36 1
  65   35   60 1
  66   35   61 1
  67   36   62 1
  68   36   63 1

#	End of record

