#	Name: ASD01000077
#	Creating user name:	WinNT
#	Creation time:	15. 06. 2019 18:54

#	Modifying user name:	WinNT
#	Modification time:	15. 06. 2019 18:54

#	Program:	/corina/corina34_cracker 3.40 0067  02.08.2006

@<TRIPOS>MOLECULE
ASD01000077
  56   58    0    0    0
SMALL
NO_CHARGES


@<TRIPOS>ATOM
   1 C1             0.3574     1.3701     0.4488 C.ar    
   2 C2             0.5189     0.0133     0.6581 C.ar    
   3 C3             1.0150    -0.7879    -0.3532 C.ar    
   4 C4             1.3493    -0.2323    -1.5741 C.ar    
   5 C5             1.1870     1.1244    -1.7837 C.ar    
   6 C6             0.6922     1.9258    -0.7719 C.ar    
   7 C7             1.1919    -2.2669    -0.1247 C.3     
   8 C8             0.9780    -2.5789     1.3340 C.ar    
   9 C9             0.0138    -3.4950     1.7108 C.ar    
  10 C10           -0.1824    -3.7812     3.0488 C.ar    
  11 C11            0.5859    -3.1516     4.0102 C.ar    
  12 C12            1.5508    -2.2362     3.6334 C.ar    
  13 C13            1.7499    -1.9532     2.2951 C.ar    
  14 S14           -0.0160    -3.1816    -1.1221 S.3     
  15 C15           -1.5943    -2.4229    -0.6487 C.3     
  16 C16           -2.7438    -3.1737    -1.3238 C.3     
  17 C17            2.5862    -2.6740    -0.5263 C.ar    
  18 C18            2.8328    -3.9647    -0.9553 C.ar    
  19 N19           -2.5848    -3.1033    -2.7825 N.3     
  20 C20            4.1118    -4.3382    -1.3237 C.ar    
  21 C21            5.1440    -3.4208    -1.2634 C.ar    
  22 C22            4.8974    -2.1299    -0.8348 C.ar    
  23 C23            3.6175    -1.7551    -0.4710 C.ar    
  24 C24            6.5384    -3.8280    -1.6645 C.3     
  25 C25            7.0091    -2.9557    -2.8300 C.3     
  26 C26            7.4847    -3.6455    -0.4762 C.3     
  27 C27           -4.0550    -2.5434    -0.9305 C.2     
  28 O28           -4.6078    -1.7782    -1.6847 O.2     
  29 O29           -4.6087    -2.8321     0.2577 O.3     
  30 H30           -0.0344     1.9953     1.2375 H       
  31 H31            0.2577    -0.4208     1.6120 H       
  32 H32            1.7376    -0.8581    -2.3640 H       
  33 H33            1.4488     1.5586    -2.7373 H       
  34 H34            0.5651     2.9857    -0.9358 H       
  35 H35           -0.5865    -3.9869     0.9597 H       
  36 H36           -0.9362    -4.4964     3.3432 H       
  37 H37            0.4321    -3.3747     5.0557 H       
  38 H38            2.1508    -1.7440     4.3845 H       
  39 H39            2.5037    -1.2380     2.0007 H       
  40 H40           -1.7123    -2.4751     0.4337 H       
  41 H41           -1.6056    -1.3801    -0.9656 H       
  42 H42           -2.7325    -4.2165    -1.0069 H       
  43 H43            2.0263    -4.6815    -1.0024 H       
  44 H44           -3.2955    -3.6457    -3.2503 H       
  45 H45           -2.5921    -2.1461    -3.1013 H       
  46 H46            4.3046    -5.3468    -1.6582 H       
  47 H47            5.7039    -1.4132    -0.7874 H       
  48 H48            3.4247    -0.7466    -0.1362 H       
  49 H49            6.5375    -4.8741    -1.9708 H       
  50 H50            6.3350    -3.0858    -3.6766 H       
  51 H51            7.0101    -1.9096    -2.5236 H       
  52 H52            8.0177    -3.2503    -3.1201 H       
  53 H53            7.1494    -4.2669     0.3541 H       
  54 H54            8.4933    -3.9400    -0.7663 H       
  55 H55            7.4857    -2.5994    -0.1698 H       
  56 H56           -5.4502    -2.4034     0.4656 H       
@<TRIPOS>BOND
   1    1    2 ar
   2    1    6 ar
   3    1   30 1
   4    2    3 ar
   5    2   31 1
   6    3    4 ar
   7    3    7 1
   8    4    5 ar
   9    4   32 1
  10    5    6 ar
  11    5   33 1
  12    6   34 1
  13    7    8 1
  14    7   14 1
  15    7   17 1
  16    8    9 ar
  17    8   13 ar
  18    9   10 ar
  19    9   35 1
  20   10   11 ar
  21   10   36 1
  22   11   12 ar
  23   11   37 1
  24   12   13 ar
  25   12   38 1
  26   13   39 1
  27   14   15 1
  28   15   16 1
  29   15   40 1
  30   15   41 1
  31   16   27 1
  32   16   19 1
  33   16   42 1
  34   17   18 ar
  35   17   23 ar
  36   18   20 ar
  37   18   43 1
  38   19   44 1
  39   19   45 1
  40   20   21 ar
  41   20   46 1
  42   21   24 1
  43   21   22 ar
  44   22   23 ar
  45   22   47 1
  46   23   48 1
  47   24   25 1
  48   24   26 1
  49   24   49 1
  50   25   50 1
  51   25   51 1
  52   25   52 1
  53   26   53 1
  54   26   54 1
  55   26   55 1
  56   27   28 2
  57   27   29 1
  58   29   56 1

#	End of record

