#	Name: ASD07130003
#	Creating user name:	WinNT
#	Creation time:	15. 06. 2019 21:09

#	Modifying user name:	WinNT
#	Modification time:	15. 06. 2019 21:09

#	Program:	/corina/corina34_cracker 3.40 0067  02.08.2006

@<TRIPOS>MOLECULE
ASD07130003
  35   37    0    0    0
SMALL
NO_CHARGES


@<TRIPOS>ATOM
   1 C1            -0.0167     1.3826     0.0096 C.ar    
   2 C2             0.0021    -0.0041     0.0020 C.ar    
   3 C3             1.1971    -0.6875    -0.0126 C.ar    
   4 C4             2.4237     0.0178    -0.0206 C.ar    
   5 C5             2.3862     1.4142    -0.0132 C.ar    
   6 C6             1.1659     2.0878     0.0021 C.ar    
   7 N7             3.6793    -0.4731    -0.0349 N.2     
   8 C8             4.6548     0.3672    -0.0398 C.2     
   9 S9             4.0426     2.0151    -0.0258 S.3     
  10 O10            1.1986    -2.0468    -0.0191 O.3     
  11 C11           -0.0738    -2.6971    -0.0099 C.3     
  12 C12            0.1284    -4.2136    -0.0190 C.3     
  13 N13            5.9961     0.0218    -0.0541 N.am    
  14 C14            6.9397     0.9841    -0.0582 C.2     
  15 C15            8.3708     0.6157    -0.0734 C.ar    
  16 O16            6.6136     2.1551    -0.0492 O.2     
  17 C17            9.3508     1.6099    -0.0777 C.ar    
  18 C18           10.6849     1.2591    -0.0920 C.ar    
  19 C19           11.0525    -0.0747    -0.1027 C.ar    
  20 C20           10.0864    -1.0652    -0.0990 C.ar    
  21 C21            8.7488    -0.7282    -0.0780 C.ar    
  22 H22           -0.9594     1.9096     0.0170 H       
  23 H23           -0.9284    -0.5523     0.0080 H       
  24 H24            1.1480     3.1676     0.0074 H       
  25 H25           -0.6226    -2.4090     0.8867 H       
  26 H26           -0.6397    -2.4006    -0.8932 H       
  27 H27            0.6771    -4.5016    -0.9157 H       
  28 H28            0.6942    -4.5100     0.8642 H       
  29 H29           -0.8422    -4.7096    -0.0121 H       
  30 H30            6.2563    -0.9126    -0.0613 H       
  31 H31            9.0651     2.6514    -0.0701 H       
  32 H32           11.4440     2.0273    -0.0953 H       
  33 H33           12.0984    -0.3440    -0.1142 H       
  34 H34           10.3801    -2.1044    -0.1078 H       
  35 H35            7.9956    -1.5022    -0.0748 H       
@<TRIPOS>BOND
   1    1    2 ar
   2    1    6 ar
   3    1   22 1
   4    2    3 ar
   5    2   23 1
   6    3    4 ar
   7    3   10 1
   8    4    5 ar
   9    4    7 1
  10    5    6 ar
  11    5    9 1
  12    6   24 1
  13    7    8 2
  14    8    9 1
  15    8   13 1
  16   10   11 1
  17   11   12 1
  18   11   25 1
  19   11   26 1
  20   12   27 1
  21   12   28 1
  22   12   29 1
  23   13   14 am
  24   13   30 1
  25   14   15 1
  26   14   16 2
  27   15   17 ar
  28   15   21 ar
  29   17   18 ar
  30   17   31 1
  31   18   19 ar
  32   18   32 1
  33   19   20 ar
  34   19   33 1
  35   20   21 ar
  36   20   34 1
  37   21   35 1

#	End of record

