#	Name: ASD05143311
#	Creating user name:	WinNT
#	Creation time:	15. 06. 2019 20:57

#	Modifying user name:	WinNT
#	Modification time:	15. 06. 2019 20:57

#	Program:	/corina/corina34_cracker 3.40 0067  02.08.2006

@<TRIPOS>MOLECULE
ASD05143311
  49   51    0    0    0
SMALL
NO_CHARGES


@<TRIPOS>ATOM
   1 C1             0.3390     1.2365     0.2648 C.2     
   2 N2             0.3408    -0.0299    -0.1015 N.2     
   3 S3            -1.2938    -0.4844    -0.1946 S.3     
   4 C4            -1.8983     1.0611     0.2665 C.2     
   5 N5            -0.8336     1.8069     0.4631 N.2     
   6 N6            -3.2220     1.4363     0.4054 N.pl3   
   7 C7            -3.5410     2.7083     0.8907 C.ar    
   8 C8            -4.8615     3.0323     1.1814 C.ar    
   9 C9            -5.1725     4.2901     1.6612 C.ar    
  10 C10           -4.1720     5.2258     1.8523 C.ar    
  11 C11           -2.8581     4.9063     1.5641 C.ar    
  12 C12           -2.5391     3.6489     1.0890 C.ar    
  13 C13            1.4356    -0.8175    -0.3553 C.ar    
  14 C14            1.6231    -2.0049     0.3541 C.ar    
  15 C15            2.3616    -0.4362    -1.3278 C.ar    
  16 C16            3.4601    -1.2307    -1.5801 C.ar    
  17 C17            3.6457    -2.4082    -0.8686 C.ar    
  18 C18            2.7243    -2.7937     0.0956 C.ar    
  19 C19            1.6024     1.9864     0.4520 C.ar    
  20 C20            1.6530     3.3520     0.1715 C.ar    
  21 C21            2.7431     1.3300     0.9147 C.ar    
  22 C22            3.9175     2.0312     1.0878 C.ar    
  23 C23            3.9656     3.3893     0.8026 C.ar    
  24 C24            2.8307     4.0470     0.3469 C.ar    
  25 O25            4.7298    -3.1886    -1.1204 O.3     
  26 C26            4.8595    -4.3864    -0.3521 C.3     
  27 O27            5.1244     4.0774     0.9751 O.3     
  28 C28            5.1036     5.4717     0.6627 C.3     
  29 Cl29          -6.1176     1.8584     0.9411 Cl      
  30 H30           -3.9293     0.8171     0.1660 H       
  31 H31           -6.1979     4.5430     1.8870 H       
  32 H32           -4.4177     6.2084     2.2272 H       
  33 H33           -2.0794     5.6395     1.7146 H       
  34 H34           -1.5123     3.4003     0.8646 H       
  35 H35            0.9070    -2.3053     1.1047 H       
  36 H36            2.2178     0.4795    -1.8820 H       
  37 H37            4.1768    -0.9366    -2.3326 H       
  38 H38            2.8725    -3.7103     0.6473 H       
  39 H39            0.7707     3.8642    -0.1829 H       
  40 H40            2.7062     0.2739     1.1374 H       
  41 H41            4.8010     1.5236     1.4459 H       
  42 H42            2.8718     5.1033     0.1257 H       
  43 H43            4.9196    -4.1343     0.7066 H       
  44 H44            3.9928    -5.0245    -0.5249 H       
  45 H45            5.7648    -4.9142    -0.6519 H       
  46 H46            4.8370     5.6052    -0.3858 H       
  47 H47            4.3683     5.9740     1.2913 H       
  48 H48            6.0896     5.8994     0.8442 H       
  49 Br49          11.0896    11.2084     7.2272 Br      
@<TRIPOS>BOND
   1    1    2 2
   2    1   19 1
   3    1    5 1
   4    2    3 1
   5    2   13 1
   6    3    4 1
   7    4    5 2
   8    4    6 1
   9    6    7 1
  10    6   30 1
  11    7    8 ar
  12    7   12 ar
  13    8    9 ar
  14    8   29 1
  15    9   10 ar
  16    9   31 1
  17   10   11 ar
  18   10   32 1
  19   11   12 ar
  20   11   33 1
  21   12   34 1
  22   13   14 ar
  23   13   15 ar
  24   14   18 ar
  25   14   35 1
  26   15   16 ar
  27   15   36 1
  28   16   17 ar
  29   16   37 1
  30   17   18 ar
  31   17   25 1
  32   18   38 1
  33   19   20 ar
  34   19   21 ar
  35   20   24 ar
  36   20   39 1
  37   21   22 ar
  38   21   40 1
  39   22   23 ar
  40   22   41 1
  41   23   24 ar
  42   23   27 1
  43   24   42 1
  44   25   26 1
  45   26   43 1
  46   26   44 1
  47   26   45 1
  48   27   28 1
  49   28   46 1
  50   28   47 1
  51   28   48 1

#	End of record

