#	Name: ASD06660061
#	Creating user name:	WinNT
#	Creation time:	15. 06. 2019 21:07

#	Modifying user name:	WinNT
#	Modification time:	15. 06. 2019 21:07

#	Program:	/corina/corina34_cracker 3.40 0067  02.08.2006

@<TRIPOS>MOLECULE
ASD06660061
  74   77    0    0    0
SMALL
NO_CHARGES


@<TRIPOS>ATOM
   1 C1             0.2910     2.0807     1.0094 C.2     
   2 C2             0.0794     0.6680     0.5291 C.3     
   3 C3            -1.0408     0.6460    -0.5128 C.3     
   4 O4             1.3653     2.6140     0.8632 O.2     
   5 O5            -0.7157     2.7484     1.5947 O.3     
   6 C6            -1.3457    -0.7801    -0.8925 C.ar    
   7 C7            -2.2730    -1.5036    -0.1641 C.ar    
   8 C8            -2.5563    -2.8099    -0.5065 C.ar    
   9 C9            -1.9057    -3.4007    -1.5898 C.ar    
  10 C10           -0.9720    -2.6657    -2.3206 C.ar    
  11 C11           -0.7013    -1.3586    -1.9714 C.ar    
  12 O12           -1.5526    -5.3315    -3.0152 O.3     
  13 C13           -2.2044    -4.8016    -1.9621 C.2     
  14 N14           -3.0721    -5.4440    -1.2605 N.2     
  15 C15           -3.4445    -6.8326    -1.5190 C.3     
  16 C16           -3.0252    -7.2257    -2.9392 C.3     
  17 C17           -1.5798    -6.7554    -3.1577 C.3     
  18 C18           -3.1039    -8.7452    -3.0992 C.3     
  19 N19           -2.8179    -9.1052    -4.4902 N.pl3   
  20 C20           -2.8309   -10.4396    -4.8795 C.ar    
  21 C21           -3.1164   -11.4283    -3.9431 C.ar    
  22 C22           -3.1260   -12.7518    -4.3442 C.ar    
  23 C23           -2.8487   -13.0436    -5.6734 C.ar    
  24 C24           -2.5739   -12.0125    -6.5488 C.ar    
  25 N25           -2.5770   -10.7579    -6.1393 N.ar    
  26 C26            2.3319    -0.2427     0.7129 C.2     
  27 C27            3.6155    -0.6633     0.1062 C.ar    
  28 C28            3.8719    -2.0176    -0.1143 C.ar    
  29 C29            5.0658    -2.4102    -0.6782 C.ar    
  30 C30            6.0209    -1.4515    -1.0301 C.ar    
  31 C31            5.7626    -0.0955    -0.8091 C.ar    
  32 C32            4.5654     0.2950    -0.2497 C.ar    
  33 O33            2.1936    -0.2667     1.9200 O.2     
  34 N34            1.3170     0.1667    -0.0737 N.am    
  35 C35            4.2841     1.7571    -0.0170 C.3     
  36 C36            2.8424    -3.0507     0.2651 C.3     
  37 C37            1.8519    -3.2307    -0.8871 C.3     
  38 C38            7.2989    -1.8702    -1.6331 C.2     
  39 O39            7.4851    -3.0354    -1.9110 O.2     
  40 C40            8.3743    -0.8498    -1.9042 C.3     
  41 H41           -0.1964     0.0350     1.3725 H       
  42 H42           -1.9344     1.1099    -0.0954 H       
  43 H43           -0.7245     1.1980    -1.3980 H       
  44 H44           -0.5322     3.6520     1.8863 H       
  45 H45           -2.7761    -1.0451     0.6744 H       
  46 H46           -3.2799    -3.3739     0.0633 H       
  47 H47           -0.4648    -3.1177    -3.1601 H       
  48 H48            0.0184    -0.7872    -2.5388 H       
  49 H49           -2.9439    -7.4818    -0.8005 H       
  50 H50           -4.5239    -6.9437    -1.4159 H       
  51 H51           -3.6823    -6.7442    -3.6634 H       
  52 H52           -1.2491    -7.0321    -4.1588 H       
  53 H53           -0.9276    -7.2128    -2.4137 H       
  54 H54           -2.3724    -9.2179    -2.4438 H       
  55 H55           -4.1042    -9.0872    -2.8337 H       
  56 H56           -2.6194    -8.4125    -5.1395 H       
  57 H57           -3.3272   -11.1658    -2.9169 H       
  58 H58           -3.3438   -13.5407    -3.6395 H       
  59 H59           -2.8479   -14.0670    -6.0185 H       
  60 H60           -2.3577   -12.2350    -7.5833 H       
  61 H61            5.2643    -3.4581    -0.8481 H       
  62 H62            6.4996     0.6459    -1.0802 H       
  63 H63            1.4059     0.1294    -1.0389 H       
  64 H64            4.6358     2.0413     0.9748 H       
  65 H65            4.8019     2.3510    -0.7702 H       
  66 H66            3.2113     1.9364    -0.0873 H       
  67 H67            3.3382    -3.9996     0.4696 H       
  68 H68            2.3077    -2.7207     1.1557 H       
  69 H69            1.4293    -2.2630    -1.1574 H       
  70 H70            2.3691    -3.6545    -1.7479 H       
  71 H71            1.0518    -3.9027    -0.5768 H       
  72 H72            7.9964     0.1463    -1.6739 H       
  73 H73            9.2424    -1.0624    -1.2803 H       
  74 H74            8.6619    -0.8954    -2.9546 H       
@<TRIPOS>BOND
   1    1    2 1
   2    1    4 2
   3    1    5 1
   4    2    3 1
   5    2   34 1
   6    2   41 1
   7    3    6 1
   8    3   42 1
   9    3   43 1
  10    5   44 1
  11    6    7 ar
  12    6   11 ar
  13    7    8 ar
  14    7   45 1
  15    8    9 ar
  16    8   46 1
  17    9   10 ar
  18    9   13 1
  19   10   11 ar
  20   10   47 1
  21   11   48 1
  22   12   13 1
  23   12   17 1
  24   13   14 2
  25   14   15 1
  26   15   16 1
  27   15   49 1
  28   15   50 1
  29   16   17 1
  30   16   18 1
  31   16   51 1
  32   17   52 1
  33   17   53 1
  34   18   19 1
  35   18   54 1
  36   18   55 1
  37   19   20 1
  38   19   56 1
  39   20   21 ar
  40   20   25 ar
  41   21   22 ar
  42   21   57 1
  43   22   23 ar
  44   22   58 1
  45   23   24 ar
  46   23   59 1
  47   24   25 ar
  48   24   60 1
  49   26   27 1
  50   26   33 2
  51   26   34 am
  52   27   28 ar
  53   27   32 ar
  54   28   29 ar
  55   28   36 1
  56   29   30 ar
  57   29   61 1
  58   30   31 ar
  59   30   38 1
  60   31   32 ar
  61   31   62 1
  62   32   35 1
  63   34   63 1
  64   35   64 1
  65   35   65 1
  66   35   66 1
  67   36   37 1
  68   36   67 1
  69   36   68 1
  70   37   69 1
  71   37   70 1
  72   37   71 1
  73   38   39 2
  74   38   40 1
  75   40   72 1
  76   40   73 1
  77   40   74 1

#	End of record

