#	Name: ASD01830022
#	Creating user name:	WinNT
#	Creation time:	15. 06. 2019 19:36

#	Modifying user name:	WinNT
#	Modification time:	15. 06. 2019 19:36

#	Program:	/corina/corina34_cracker 3.40 0067  02.08.2006

@<TRIPOS>MOLECULE
ASD01830022
  67   75    0    0    0
SMALL
NO_CHARGES


@<TRIPOS>ATOM
   1 N1             0.4706     1.8782    -0.4209 N.am    
   2 C2             0.5955     0.5532    -0.6377 C.2     
   3 C3            -0.5701    -0.3653    -0.4056 C.3     
   4 C4            -1.6135     0.1682     0.5741 C.3     
   5 C5            -1.3575     1.6026     0.9548 C.3     
   6 C6            -0.9059     2.4339    -0.2339 C.3     
   7 C7            -2.3690     2.2935     1.8217 C.3     
   8 C8            -1.6955     3.5612     2.3781 C.3     
   9 C9            -1.4507     4.4981     1.2139 C.3     
  10 C10           -0.7066     3.9093     0.0367 C.3     
  11 C11            1.3956     2.8661    -0.1844 C.ar    
  12 C12            0.7845     4.0885     0.1183 C.ar    
  13 C13            1.5151     5.2218     0.4201 C.ar    
  14 C14            2.8997     5.1096     0.3982 C.ar    
  15 C15            3.5161     3.9151     0.0863 C.ar    
  16 C16            2.7928     2.7727    -0.2101 C.ar    
  17 O17            1.6533     0.1013    -1.0221 O.2     
  18 N18           -2.7099     5.0565     0.7062 N.4     
  19 C19           -3.5674     2.7109     1.0117 C.2     
  20 C20           -3.7787     4.0941     0.5144 C.3     
  21 C21           -1.1942     4.7541    -1.1703 C.3     
  22 O22           -2.9118     0.0082    -0.0080 O.3     
  23 C23           -4.3831     1.7567     0.6259 C.2     
  24 C24           -4.0078     0.3188     0.8573 C.3     
  25 H25           -0.4703     1.5532     1.5860 H       
  26 H26           -2.6684     1.6392     2.6404 H       
  27 H27           -1.5764    -0.4390     1.4786 H       
  28 H28           -1.5352     2.2578    -1.1063 H       
  29 H29           -0.8619     5.3366     1.5859 H       
  30 C30           -2.3830     5.5783    -0.6509 C.3     
  31 C31           -3.1650     6.1443     1.5823 C.3     
  32 C32           -4.3956     6.7832     0.9920 C.ar    
  33 C33           -5.6559     6.3786     1.4289 C.ar    
  34 C34           -6.7872     6.9354     0.9169 C.ar    
  35 C35           -6.6869     7.9337    -0.0673 C.ar    
  36 C36           -5.4053     8.3452    -0.5116 C.ar    
  37 C37           -4.2596     7.7505     0.0445 C.ar    
  38 C38           -7.8321     8.5314    -0.6198 C.ar    
  39 C39           -7.6963     9.4951    -1.5716 C.ar    
  40 C40           -6.4365     9.8996    -2.0083 C.ar    
  41 C41           -5.3049     9.3429    -1.4957 C.ar    
  42 H42           -1.0582    -0.5521    -1.3621 H       
  43 H43           -0.1916    -1.3137    -0.0243 H       
  44 H44           -2.3511     4.0392     3.1060 H       
  45 H45           -0.7474     3.3002     2.8485 H       
  46 H46            1.0302     6.1559     0.6625 H       
  47 H47            3.5050     5.9737     0.6292 H       
  48 H48            4.5951     3.8700     0.0734 H       
  49 H49            3.2875     1.8439    -0.4528 H       
  50 H50           -4.6719     4.4886     0.9989 H       
  51 H51           -3.9848     4.0351    -0.5543 H       
  52 H52           -0.3985     5.4159    -1.5122 H       
  53 H53           -1.5154     4.1006    -1.9815 H       
  54 H54           -5.3181     2.0032     0.1447 H       
  55 H55           -4.8556    -0.3258     0.6253 H       
  56 H56           -3.7095     0.1779     1.8961 H       
  57 H57           -3.2395     5.4552    -1.3137 H       
  58 H58           -2.1076     6.6311    -0.5889 H       
  59 H59           -3.4013     5.7425     2.5676 H       
  60 H60           -2.3763     6.8910     1.6740 H       
  61 H61           -5.7357     5.6115     2.1848 H       
  62 H62           -7.7570     6.6116     1.2649 H       
  63 H63           -3.2766     8.0542    -0.2840 H       
  64 H64           -8.8151     8.2277    -0.2913 H       
  65 H65           -8.5782     9.9527    -1.9950 H       
  66 H66           -6.3566    10.6661    -2.7649 H       
  67 H67           -4.3351     9.6665    -1.8438 H       
@<TRIPOS>BOND
   1    1    2 am
   2    1   11 1
   3    1    6 1
   4    2    3 1
   5    2   17 2
   6    3    4 1
   7    3   42 1
   8    3   43 1
   9    4    5 1
  10    4   22 1
  11    4   27 1
  12    5    6 1
  13    5   25 1
  14    5    7 1
  15    6   10 1
  16    6   28 1
  17    7    8 1
  18    7   19 1
  19    7   26 1
  20    8    9 1
  21    8   44 1
  22    8   45 1
  23    9   10 1
  24    9   18 1
  25    9   29 1
  26   10   21 1
  27   10   12 1
  28   11   12 ar
  29   11   16 ar
  30   12   13 ar
  31   13   14 ar
  32   13   46 1
  33   14   15 ar
  34   14   47 1
  35   15   16 ar
  36   15   48 1
  37   16   49 1
  38   18   20 1
  39   18   30 1
  40   18   31 1
  41   19   23 2
  42   19   20 1
  43   20   50 1
  44   20   51 1
  45   21   30 1
  46   21   52 1
  47   21   53 1
  48   22   24 1
  49   23   24 1
  50   23   54 1
  51   24   55 1
  52   24   56 1
  53   30   57 1
  54   30   58 1
  55   31   32 1
  56   31   59 1
  57   31   60 1
  58   32   33 ar
  59   32   37 ar
  60   33   34 ar
  61   33   61 1
  62   34   35 ar
  63   34   62 1
  64   35   36 ar
  65   35   38 ar
  66   36   37 ar
  67   36   41 ar
  68   37   63 1
  69   38   39 ar
  70   38   64 1
  71   39   40 ar
  72   39   65 1
  73   40   41 ar
  74   40   66 1
  75   41   67 1

#	End of record

