#	Name: ASD02508151
#	Creating user name:	WinNT
#	Creation time:	15. 06. 2019 20:23

#	Modifying user name:	WinNT
#	Modification time:	15. 06. 2019 20:23

#	Program:	/corina/corina34_cracker 3.40 0067  02.08.2006

@<TRIPOS>MOLECULE
ASD02508151
  36   38    0    0    0
SMALL
NO_CHARGES


@<TRIPOS>ATOM
   1 C1             0.2048     1.6285     0.0773 C.ar    
   2 C2             0.1508     0.2494     0.2059 C.ar    
   3 C3             1.4345     2.2671    -0.0812 C.ar    
   4 C4             2.5999     1.5173    -0.1090 C.ar    
   5 C5             2.5384     0.1435     0.0202 C.ar    
   6 C6             1.3174    -0.4895     0.1766 C.ar    
   7 N7            -0.7681     2.6276     0.0616 N.am    
   8 C8            -0.1349     3.8072    -0.0938 C.2     
   9 O9             1.1878     3.5963    -0.1810 O.3     
  10 S10            4.0210    -0.8079    -0.0155 S.o2    
  11 N11            3.9562    -1.7663    -1.3644 N.am    
  12 C12            3.8641    -1.1837    -2.6323 C.ar    
  13 O13           -0.6781     4.8936    -0.1508 O.2     
  14 C14           -2.2141     2.4308     0.1901 C.3     
  15 O15            5.0831     0.1121    -0.2275 O.2     
  16 O16            3.9629    -1.6836     1.1022 O.2     
  17 C17            3.1115    -1.7972    -3.6286 C.ar    
  18 C18            4.5188     0.0109    -2.8981 C.ar    
  19 C19            4.4260     0.5842    -4.1521 C.ar    
  20 C20            3.6819    -0.0298    -5.1421 C.ar    
  21 C21            3.0232    -1.2178    -4.8806 C.ar    
  22 C22            1.2609    -1.9889     0.3169 C.3     
  23 F23            2.4682    -2.9574    -3.3730 F       
  24 H24           -0.8009    -0.2460     0.3290 H       
  25 H25            3.5548     2.0065    -0.2318 H       
  26 H26            3.9821    -2.7318    -1.2750 H       
  27 H27           -2.4946     2.4742     1.2425 H       
  28 H28           -2.7376     3.2143    -0.3579 H       
  29 H29           -2.4862     1.4577    -0.2186 H       
  30 H30            5.1000     0.4922    -2.1255 H       
  31 H31            4.9355     1.5138    -4.3589 H       
  32 H32            3.6112     0.4212    -6.1208 H       
  33 H33            2.4429    -1.6951    -5.6563 H       
  34 H34            1.4277    -2.2628     1.3587 H       
  35 H35            0.2816    -2.3469    -0.0006 H       
  36 H36            2.0327    -2.4414    -0.3057 H       
@<TRIPOS>BOND
   1    1    2 ar
   2    1    3 ar
   3    1    7 1
   4    2    6 ar
   5    2   24 1
   6    3    4 ar
   7    3    9 1
   8    4    5 ar
   9    4   25 1
  10    5    6 ar
  11    5   10 1
  12    6   22 1
  13    7    8 am
  14    7   14 1
  15    8    9 1
  16    8   13 2
  17   10   11 am
  18   10   15 2
  19   10   16 2
  20   11   12 1
  21   11   26 1
  22   12   17 ar
  23   12   18 ar
  24   14   27 1
  25   14   28 1
  26   14   29 1
  27   17   23 1
  28   17   21 ar
  29   18   19 ar
  30   18   30 1
  31   19   20 ar
  32   19   31 1
  33   20   21 ar
  34   20   32 1
  35   21   33 1
  36   22   34 1
  37   22   35 1
  38   22   36 1

#	End of record

