#	Name: ASD01790005
#	Creating user name:	WinNT
#	Creation time:	15. 06. 2019 19:23

#	Modifying user name:	WinNT
#	Modification time:	15. 06. 2019 19:23

#	Program:	/corina/corina34_cracker 3.40 0067  02.08.2006

@<TRIPOS>MOLECULE
ASD01790005
  44   44    0    0    0
SMALL
NO_CHARGES


@<TRIPOS>ATOM
   1 C1            -0.0168     1.3900     0.0097 C.ar    
   2 C2             0.0021    -0.0041     0.0020 C.ar    
   3 C3            -1.1889    -0.7178     0.0100 C.ar    
   4 C4            -2.3948    -0.0518     0.0256 C.ar    
   5 C5            -2.4212     1.3456     0.0334 C.ar    
   6 C6            -1.2221     2.0641     0.0306 C.ar    
   7 O7             1.1516     2.0859     0.0023 O.3     
   8 O8             1.1880    -0.6653    -0.0138 O.3     
   9 C9            -3.7111     2.0603     0.0501 C.2     
  10 O10           -4.8659     1.3661     0.0579 O.3     
  11 O11           -3.7324     3.2751     0.0568 O.2     
  12 C12           -6.0973     2.1353     0.0743 C.3     
  13 C13           -7.2941     1.1820     0.0812 C.3     
  14 C14           -8.5916     1.9926     0.0985 C.3     
  15 C15           -9.7884     1.0393     0.1053 C.3     
  16 C16          -11.0859     1.8498     0.1226 C.3     
  17 C17          -12.2826     0.8966     0.1295 C.3     
  18 C18          -13.5802     1.7071     0.1468 C.3     
  19 C19          -14.7769     0.7538     0.1536 C.3     
  20 C20          -16.0745     1.5644     0.1709 C.3     
  21 H21           -1.1699    -1.7976     0.0037 H       
  22 H22           -3.3197    -0.6094     0.0315 H       
  23 H23           -1.2382     3.1440     0.0366 H       
  24 H24            1.4811     2.2919    -0.8832 H       
  25 H25            1.5406    -0.8616     0.8650 H       
  26 H26           -6.1244     2.7588     0.9680 H       
  27 H27           -6.1421     2.7683    -0.8119 H       
  28 H28           -7.2670     0.5585    -0.8125 H       
  29 H29           -7.2493     0.5490     0.9674 H       
  30 H30           -8.6186     2.6161     0.9921 H       
  31 H31           -8.6364     2.6256    -0.7877 H       
  32 H32           -9.7613     0.4158    -0.7883 H       
  33 H33           -9.7435     0.4063     0.9915 H       
  34 H34          -11.1129     2.4733     1.0163 H       
  35 H35          -11.1307     2.4829    -0.7636 H       
  36 H36          -12.2556     0.2731    -0.7642 H       
  37 H37          -12.2378     0.2635     1.0157 H       
  38 H38          -13.6072     2.3306     1.0404 H       
  39 H39          -13.6250     2.3401    -0.7394 H       
  40 H40          -14.7499     0.1303    -0.7400 H       
  41 H41          -14.7321     0.1208     1.0398 H       
  42 H42          -16.1015     2.1879     1.0646 H       
  43 H43          -16.1193     2.1974    -0.7153 H       
  44 H44          -16.9270     0.8853     0.1758 H       
@<TRIPOS>BOND
   1    1    2 ar
   2    1    7 1
   3    1    6 ar
   4    2    3 ar
   5    2    8 1
   6    3    4 ar
   7    3   21 1
   8    4    5 ar
   9    4   22 1
  10    5    6 ar
  11    5    9 1
  12    6   23 1
  13    7   24 1
  14    8   25 1
  15    9   10 1
  16    9   11 2
  17   10   12 1
  18   12   13 1
  19   12   26 1
  20   12   27 1
  21   13   14 1
  22   13   28 1
  23   13   29 1
  24   14   15 1
  25   14   30 1
  26   14   31 1
  27   15   16 1
  28   15   32 1
  29   15   33 1
  30   16   17 1
  31   16   34 1
  32   16   35 1
  33   17   18 1
  34   17   36 1
  35   17   37 1
  36   18   19 1
  37   18   38 1
  38   18   39 1
  39   19   20 1
  40   19   40 1
  41   19   41 1
  42   20   42 1
  43   20   43 1
  44   20   44 1

#	End of record

