#	Name: ASD03930138
#	Creating user name:	WinNT
#	Creation time:	15. 06. 2019 20:47

#	Modifying user name:	WinNT
#	Modification time:	15. 06. 2019 20:47

#	Program:	/corina/corina34_cracker 3.40 0067  02.08.2006

@<TRIPOS>MOLECULE
ASD03930138
  52   54    0    0    0
SMALL
NO_CHARGES


@<TRIPOS>ATOM
   1 C1            -0.0189     1.5392     0.0105 C.3     
   2 C2             0.0021    -0.0041     0.0020 C.3     
   3 C3             1.3636    -0.3205     0.6565 C.3     
   4 C4             2.2309     0.8866     0.3700 C.ar    
   5 C5             3.6061     1.0379     0.4299 C.ar    
   6 C6             4.1861     2.2533     0.1198 C.ar    
   7 C7             3.3907     3.3225    -0.2516 C.ar    
   8 C8             2.0193     3.1728    -0.3117 C.ar    
   9 C9             1.4365     1.9552    -0.0012 C.ar    
  10 N10           -1.1020    -0.5457     0.8055 N.3     
  11 Br11           6.0644     2.4549     0.2038 Br      
  12 H12           -0.5269     1.9155    -0.8774 H       
  13 H13           -0.5098     1.9059     0.9120 H       
  14 H14           -0.0357    -0.3865    -1.0180 H       
  15 H15            1.2445    -0.4540     1.7317 H       
  16 H16            1.7995    -1.2140     0.2096 H       
  17 H17            4.2273     0.2035     0.7202 H       
  18 H18            3.8418     4.2734    -0.4940 H       
  19 H19            1.3989     4.0079    -0.6017 H       
  20 H20           -1.0908    -1.5546     0.8018 H       
  21 H21           -1.0729    -0.1872     1.7483 H       
  22 C22           12.6558    12.4427     8.9274 C.3     
  23 S23           12.6804    10.6289     8.9175 S.o2    
  24 O24           13.1657    10.1436     7.6732 O.2     
  25 O25           13.1893    10.1303    10.1470 O.2     
  26 O26           11.2119    10.2291     8.9293 O.3     
  27 C27           14.0912    12.9723     8.9166 C.3     
  28 C28           14.9392    12.5822     7.6977 C.2     
  29 C29           16.0910    13.5764     7.6738 C.3     
  30 C30           15.8394    14.5100     8.8975 C.3     
  31 C31           16.1269    13.6074    10.1366 C.3     
  32 C32           14.9688    12.5831    10.1453 C.3     
  33 C33           14.2694    14.5314     8.9134 C.3     
  34 O34           14.7355    11.6787     6.9228 O.2     
  35 C35           13.6899    15.1741     7.6517 C.3     
  36 C36           13.7157    15.1763    10.1856 C.3     
  37 H37           12.1286    12.8038     8.0444 H       
  38 H38           12.1456    12.7942     9.8242 H       
  39 H39           11.0644     9.2734     8.9256 H       
  40 H40           17.0429    13.0566     7.7828 H       
  41 H41           16.0761    14.1519     6.7483 H       
  42 H42           16.3484    15.4737     8.8781 H       
  43 H43           17.0841    13.0986    10.0230 H       
  44 H44           16.1165    14.2012    11.0506 H       
  45 H45           14.3924    12.6686    11.0665 H       
  46 H46           15.3559    11.5706    10.0305 H       
  47 H47           12.6242    14.9541     7.5885 H       
  48 H48           13.8362    16.2535     7.6938 H       
  49 H49           14.1965    14.7728     6.7740 H       
  50 H50           14.2401    14.7764    11.0535 H       
  51 H51           13.8611    16.2555    10.1387 H       
  52 H52           12.6516    14.9564    10.2709 H       
@<TRIPOS>BOND
   1    1    2 1
   2    1    9 1
   3    1   12 1
   4    1   13 1
   5    2    3 1
   6    2   10 1
   7    2   14 1
   8    3    4 1
   9    3   15 1
  10    3   16 1
  11    4    5 ar
  12    4    9 ar
  13    5    6 ar
  14    5   17 1
  15    6    7 ar
  16    6   11 1
  17    7    8 ar
  18    7   18 1
  19    8    9 ar
  20    8   19 1
  21   10   20 1
  22   10   21 1
  23   22   23 1
  24   22   27 1
  25   22   37 1
  26   22   38 1
  27   23   24 2
  28   23   25 2
  29   23   26 1
  30   26   39 1
  31   27   28 1
  32   27   32 1
  33   27   33 1
  34   28   29 1
  35   28   34 2
  36   29   30 1
  37   29   40 1
  38   29   41 1
  39   30   31 1
  40   30   33 1
  41   30   42 1
  42   31   32 1
  43   31   43 1
  44   31   44 1
  45   32   45 1
  46   32   46 1
  47   33   35 1
  48   33   36 1
  49   35   47 1
  50   35   48 1
  51   35   49 1
  52   36   50 1
  53   36   51 1
  54   36   52 1

#	End of record

