#	Name: ASD09790014
#	Creating user name:	WinNT
#	Creation time:	15. 06. 2019 21:24

#	Modifying user name:	WinNT
#	Modification time:	15. 06. 2019 21:24

#	Program:	/corina/corina34_cracker 3.40 0067  02.08.2006

@<TRIPOS>MOLECULE
ASD09790014
  59   62    0    0    0
SMALL
NO_CHARGES


@<TRIPOS>ATOM
   1 C1             0.1281     1.2986    -0.8195 C.2     
   2 C2            -0.3064     1.1882    -2.2296 C.ar    
   3 C3             0.6289     1.4593    -3.2404 C.ar    
   4 O4             1.8974     1.8041    -2.9412 O.3     
   5 C5             2.2553     2.2034    -1.7041 C.ar    
   6 C6             1.4209     1.9706    -0.5962 C.ar    
   7 C7            -1.6120     0.8259    -2.5527 C.ar    
   8 C8            -1.9859     0.7378    -3.8769 C.ar    
   9 C9            -1.0664     1.0083    -4.8787 C.ar    
  10 C10            0.2287     1.3662    -4.5696 C.ar    
  11 C11            1.8128     2.3732     0.6867 C.ar    
  12 C12            3.4648     2.8554    -1.5100 C.ar    
  13 C13            3.8440     3.2595    -0.2391 C.ar    
  14 C14            3.0245     3.0185     0.8575 C.ar    
  15 O15           -0.5430     0.8658     0.0997 O.2     
  16 O16            1.0102     2.1324     1.7537 O.3     
  17 O17            5.0292     3.8981    -0.0637 O.3     
  18 C18            5.0862     5.1940    -0.4302 C.2     
  19 C19            6.3685     5.9198    -0.3756 C.ar    
  20 O20            4.0809     5.7640    -0.8056 O.2     
  21 C21            7.5274     5.2643     0.0505 C.ar    
  22 C22            8.7227     5.9458     0.1001 C.ar    
  23 C23            6.4299     7.2639    -0.7553 C.ar    
  24 C24            7.6292     7.9379    -0.7027 C.ar    
  25 C25            8.7781     7.2840    -0.2725 C.ar    
  26 O26            9.9581     7.9521    -0.2218 O.3     
  27 Si27          10.2428     8.6883     1.2055 Si      
  28 C28            8.8941     9.9279     1.5448 C.3     
  29 C29           10.2728     7.4155     2.5656 C.3     
  30 C30           11.8866     9.5622     1.1365 C.3     
  31 C31           11.8619    10.6075     0.0195 C.3     
  32 C32           12.1537    10.2528     2.4754 C.3     
  33 C33           12.9942     8.5442     0.8579 C.3     
  34 H34           -2.3268     0.6151    -1.7710 H       
  35 H35           -2.9965     0.4572    -4.1342 H       
  36 H36           -1.3682     0.9383    -5.9133 H       
  37 H37            0.9338     1.5745    -5.3607 H       
  38 H38            4.1132     3.0484    -2.3518 H       
  39 H39            3.3338     3.3349     1.8428 H       
  40 H40            1.1749     1.2833     2.1861 H       
  41 H41            7.4851     4.2249     0.3408 H       
  42 H42            9.6185     5.4402     0.4291 H       
  43 H43            5.5378     7.7727    -1.0896 H       
  44 H44            7.6776     8.9761    -0.9962 H       
  45 H45            7.9324     9.4166     1.5852 H       
  46 H46            9.0844    10.4199     2.4987 H       
  47 H47            8.8765    10.6726     0.7491 H       
  48 H48           11.0619     6.6901     2.3671 H       
  49 H49           10.4631     7.9074     3.5195 H       
  50 H50            9.3111     6.9041     2.6060 H       
  51 H51           11.0728    11.3328     0.2180 H       
  52 H52           12.8237    11.1189    -0.0209 H       
  53 H53           11.6716    10.1156    -0.9344 H       
  54 H54           12.1713     9.5081     3.2712 H       
  55 H55           13.1155    10.7642     2.4350 H       
  56 H56           11.3646    10.9781     2.6739 H       
  57 H57           12.8039     8.0522    -0.0960 H       
  58 H58           13.9560     9.0555     0.8175 H       
  59 H59           13.0118     7.7995     1.6536 H       
@<TRIPOS>BOND
   1    1    2 1
   2    1    6 1
   3    1   15 2
   4    2    3 ar
   5    2    7 ar
   6    3    4 1
   7    3   10 ar
   8    4    5 1
   9    5   12 ar
  10    5    6 ar
  11    6   11 ar
  12    7    8 ar
  13    7   34 1
  14    8    9 ar
  15    8   35 1
  16    9   10 ar
  17    9   36 1
  18   10   37 1
  19   11   14 ar
  20   11   16 1
  21   12   13 ar
  22   12   38 1
  23   13   14 ar
  24   13   17 1
  25   14   39 1
  26   16   40 1
  27   17   18 1
  28   18   19 1
  29   18   20 2
  30   19   23 ar
  31   19   21 ar
  32   21   22 ar
  33   21   41 1
  34   22   25 ar
  35   22   42 1
  36   23   24 ar
  37   23   43 1
  38   24   25 ar
  39   24   44 1
  40   25   26 1
  41   26   27 1
  42   27   28 1
  43   27   29 1
  44   27   30 1
  45   28   45 1
  46   28   46 1
  47   28   47 1
  48   29   48 1
  49   29   49 1
  50   29   50 1
  51   30   31 1
  52   30   32 1
  53   30   33 1
  54   31   51 1
  55   31   52 1
  56   31   53 1
  57   32   54 1
  58   32   55 1
  59   32   56 1
  60   33   57 1
  61   33   58 1
  62   33   59 1

#	End of record

