#	Name: ASD01811663
#	Creating user name:	WinNT
#	Creation time:	15. 06. 2019 19:27

#	Modifying user name:	WinNT
#	Modification time:	15. 06. 2019 19:27

#	Program:	/corina/corina34_cracker 3.40 0067  02.08.2006

@<TRIPOS>MOLECULE
ASD01811663
  33   35    0    0    0
SMALL
NO_CHARGES


@<TRIPOS>ATOM
   1 C1             0.3019     1.7815     0.5684 C.ar    
   2 C2             0.1647     0.4035     0.5811 C.ar    
   3 C3             1.2637    -0.4001     0.3826 C.ar    
   4 C4             2.5298     0.1646     0.1666 C.ar    
   5 C5             2.6654     1.5518     0.1556 C.ar    
   6 C6             1.5384     2.3511     0.3578 C.ar    
   7 C7             3.6599    -0.7541    -0.0415 C.2     
   8 N8             4.6023    -0.5785    -0.8987 N.2     
   9 C9             4.6430     0.5940    -1.7718 C.3     
  10 C10            4.8026     1.8268    -0.9246 C.2     
  11 N11            3.8748     2.1965    -0.0453 N.am    
  12 S12            6.1219     2.7160    -1.0842 S.2     
  13 C13            3.7168    -1.9722     0.7998 C.ar    
  14 C14            3.0645    -2.0032     2.0321 C.ar    
  15 C15            3.1212    -3.1406     2.8112 C.ar    
  16 C16            3.8237    -4.2487     2.3723 C.ar    
  17 C17            4.4728    -4.2241     1.1508 C.ar    
  18 C18            4.4182    -3.0946     0.3600 C.ar    
  19 C19           -1.1893    -0.2163     0.8130 C.3     
  20 H20           -0.5628     2.4107     0.7196 H       
  21 H21            1.1510    -1.4741     0.3936 H       
  22 H22            1.6370     3.4266     0.3488 H       
  23 H23            5.4868     0.5100    -2.4567 H       
  24 H24            3.7148     0.6588    -2.3395 H       
  25 H25            4.0597     2.9791     0.4972 H       
  26 H26            2.5163    -1.1385     2.3761 H       
  27 H27            2.6164    -3.1658     3.7656 H       
  28 H28            3.8658    -5.1365     2.9859 H       
  29 H29            5.0196    -5.0922     0.8135 H       
  30 H30            4.9254    -3.0766    -0.5933 H       
  31 H31           -1.6928    -0.3574    -0.1434 H       
  32 H32           -1.0677    -1.1811     1.3054 H       
  33 H33           -1.7865     0.4413     1.4446 H       
@<TRIPOS>BOND
   1    1    2 ar
   2    1    6 ar
   3    1   20 1
   4    2    3 ar
   5    2   19 1
   6    3    4 ar
   7    3   21 1
   8    4    5 ar
   9    4    7 1
  10    5    6 ar
  11    5   11 1
  12    6   22 1
  13    7    8 2
  14    7   13 1
  15    8    9 1
  16    9   10 1
  17    9   23 1
  18    9   24 1
  19   10   11 am
  20   10   12 2
  21   11   25 1
  22   13   14 ar
  23   13   18 ar
  24   14   15 ar
  25   14   26 1
  26   15   16 ar
  27   15   27 1
  28   16   17 ar
  29   16   28 1
  30   17   18 ar
  31   17   29 1
  32   18   30 1
  33   19   31 1
  34   19   32 1
  35   19   33 1

#	End of record

