#	Name: ASD05490235
#	Creating user name:	WinNT
#	Creation time:	15. 06. 2019 21:01

#	Modifying user name:	WinNT
#	Modification time:	15. 06. 2019 21:01

#	Program:	/corina/corina34_cracker 3.40 0067  02.08.2006

@<TRIPOS>MOLECULE
ASD05490235
  62   65    0    0    0
SMALL
NO_CHARGES


@<TRIPOS>ATOM
   1 N1            -0.0140     1.3250    -0.0022 N.ar    
   2 C2             0.0027    -0.0004    -0.0090 C.ar    
   3 C3             1.2014    -0.7004    -0.0181 C.ar    
   4 C4             2.3965     0.0114    -0.0208 C.ar    
   5 C5             2.3407     1.4059    -0.0170 C.ar    
   6 C6             1.1051     2.0390    -0.0059 C.ar    
   7 N7             3.6203    -0.6462    -0.0228 N.3     
   8 C8             3.4734    -2.0304    -0.4923 C.3     
   9 C9             4.7942    -2.7454    -0.3692 C.ar    
  10 C10            5.1097    -3.4187     0.7961 C.ar    
  11 C11            6.3213    -4.0746     0.9091 C.ar    
  12 C12            7.2172    -4.0576    -0.1435 C.ar    
  13 C13            6.9013    -3.3851    -1.3092 C.ar    
  14 C14            5.6879    -2.7329    -1.4238 C.ar    
  15 C15            9.7059    -6.8153    -0.6077 C.3     
  16 N16            8.3923    -6.1564    -0.4884 N.3     
  17 C17            7.7212    -6.2024    -1.8050 C.3     
  18 C18            8.3631    -7.4090    -2.5342 C.3     
  19 C19            9.8380    -7.3115    -2.0630 C.3     
  20 N20            1.0395     3.4298     0.0009 N.pl3   
  21 N21           -1.2002    -0.7010    -0.0065 N.pl3   
  22 C22           -1.1946    -2.1660    -0.0140 C.3     
  23 C23           -2.6352    -2.6815    -0.0093 C.3     
  24 N24            3.5369     2.1457    -0.0281 N.am    
  25 C25            4.6286     0.0714    -0.8097 C.3     
  26 C26            4.6770     1.5196    -0.3969 C.2     
  27 O27            5.7315     2.1195    -0.3953 O.2     
  28 C28           -2.6293    -4.2115    -0.0171 C.3     
  29 C29           -4.0699    -4.7270    -0.0125 C.3     
  30 C30            8.5385    -4.7718    -0.0201 C.3     
  31 H31            1.2061    -1.7804    -0.0227 H       
  32 H32            2.7254    -2.5420     0.1134 H       
  33 H33            3.1570    -2.0286    -1.5354 H       
  34 H34            4.4098    -3.4320     1.6185 H       
  35 H35            6.5681    -4.6000     1.8198 H       
  36 H36            7.6014    -3.3715    -2.1315 H       
  37 H37            5.4411    -2.2075    -2.3345 H       
  38 H38           10.4999    -6.1024    -0.3855 H       
  39 H39            9.7605    -7.6604     0.0786 H       
  40 H40            6.6501    -6.3608    -1.6796 H       
  41 H41            7.9074    -5.2818    -2.3581 H       
  42 H42            7.9109    -8.3464    -2.2106 H       
  43 H43            8.2904    -7.2951    -3.6158 H       
  44 H44           10.3888    -6.5908    -2.6674 H       
  45 H45           10.3181    -8.2895    -2.0946 H       
  46 H46            1.8558     3.9539    -0.0021 H       
  47 H47            0.1776     3.8747     0.0086 H       
  48 H48           -2.0421    -0.2192     0.0002 H       
  49 H49           -0.6839    -2.5228    -0.9084 H       
  50 H50           -0.6750    -2.5319     0.8716 H       
  51 H51           -3.1459    -2.3247     0.8851 H       
  52 H52           -3.1549    -2.3156    -0.8949 H       
  53 H53            3.5436     3.0828     0.2225 H       
  54 H54            5.6055    -0.3836    -0.6459 H       
  55 H55            4.3749     0.0058    -1.8677 H       
  56 H56           -2.1186    -4.5683    -0.9115 H       
  57 H57           -2.1097    -4.5774     0.8684 H       
  58 H58           -4.5806    -4.3701     0.8819 H       
  59 H59           -4.5896    -4.3611    -0.8980 H       
  60 H60           -4.0657    -5.8170    -0.0181 H       
  61 H61            9.2860    -4.2602    -0.6263 H       
  62 H62            8.8550    -4.7725     1.0229 H       
@<TRIPOS>BOND
   1    1    2 ar
   2    1    6 ar
   3    2    3 ar
   4    2   21 1
   5    3    4 ar
   6    3   31 1
   7    4    5 ar
   8    4    7 1
   9    5    6 ar
  10    5   24 1
  11    6   20 1
  12    7    8 1
  13    7   25 1
  14    8    9 1
  15    8   32 1
  16    8   33 1
  17    9   10 ar
  18    9   14 ar
  19   10   11 ar
  20   10   34 1
  21   11   12 ar
  22   11   35 1
  23   12   13 ar
  24   12   30 1
  25   13   14 ar
  26   13   36 1
  27   14   37 1
  28   15   16 1
  29   15   19 1
  30   15   38 1
  31   15   39 1
  32   16   17 1
  33   16   30 1
  34   17   18 1
  35   17   40 1
  36   17   41 1
  37   18   19 1
  38   18   42 1
  39   18   43 1
  40   19   44 1
  41   19   45 1
  42   20   46 1
  43   20   47 1
  44   21   22 1
  45   21   48 1
  46   22   23 1
  47   22   49 1
  48   22   50 1
  49   23   28 1
  50   23   51 1
  51   23   52 1
  52   24   26 am
  53   24   53 1
  54   25   26 1
  55   25   54 1
  56   25   55 1
  57   26   27 2
  58   28   29 1
  59   28   56 1
  60   28   57 1
  61   29   58 1
  62   29   59 1
  63   29   60 1
  64   30   61 1
  65   30   62 1

#	End of record

