#	Name: ASD01208723
#	Creating user name:	WinNT
#	Creation time:	15. 06. 2019 19:10

#	Modifying user name:	WinNT
#	Modification time:	15. 06. 2019 19:10

#	Program:	/corina/corina34_cracker 3.40 0067  02.08.2006

@<TRIPOS>MOLECULE
ASD01208723
  55   58    0    0    0
SMALL
NO_CHARGES


@<TRIPOS>ATOM
   1 C1             0.1631     1.3068    -0.1904 C.2     
   2 C2             0.1926    -0.1085     0.2153 C.ar    
   3 C3             1.3808    -0.8482     0.1067 C.ar    
   4 C4             1.3995    -2.1781     0.4903 C.ar    
   5 C5             0.2473    -2.7758     0.9799 C.ar    
   6 C6            -0.9311    -2.0438     1.0880 C.ar    
   7 C7            -0.9612    -0.7196     0.7155 C.ar    
   8 O8             1.1696     1.8373    -0.6205 O.2     
   9 N9            -0.9805     2.0128    -0.0902 N.am    
  10 O10            2.5062    -0.2620    -0.3727 O.3     
  11 C11            3.6179    -1.0307    -0.5070 C.ar    
  12 C12            3.7266    -1.9106    -1.5765 C.ar    
  13 C13            4.8530    -2.6922    -1.7162 C.ar    
  14 C14            5.8859    -2.5985    -0.7814 C.ar    
  15 C15            5.7731    -1.7126     0.2920 C.ar    
  16 C16            4.6456    -0.9308     0.4222 C.ar    
  17 O17            8.1629    -3.4478    -0.1044 O.3     
  18 C18            7.0952    -3.4351    -0.9273 C.2     
  19 N19            7.3298    -4.3050    -1.8821 N.2     
  20 N20            8.4802    -4.8476    -1.6883 N.2     
  21 C21            9.0210    -4.3502    -0.6116 C.2     
  22 C22           10.3653    -4.7194    -0.0392 C.3     
  23 O23            0.2695    -4.0800     1.3545 O.3     
  24 C24           -0.9157    -6.1798     1.5178 C.3     
  25 C25           -0.9764    -4.6667     1.7360 C.3     
  26 C26           -1.2464    -4.3749     3.2134 C.3     
  27 O27            0.0556    -6.7493     2.3979 O.3     
  28 C28            0.1919    -8.1664     2.2741 C.3     
  29 S29           -2.4186     4.4022    -0.4029 S.3     
  30 C30           -1.0084     3.3488    -0.4730 C.2     
  31 N31            0.0006     4.0194    -0.9386 N.2     
  32 C32           -0.2130     5.2842    -1.2502 C.2     
  33 C33           -1.4549     5.7294    -1.0478 C.2     
  34 F34           -1.8971     6.9819    -1.2947 F       
  35 H35            2.3115    -2.7508     0.4080 H       
  36 H36           -1.8244    -2.5157     1.4701 H       
  37 H37           -1.8768    -0.1538     0.8053 H       
  38 H38           -1.7842     1.5887     0.2491 H       
  39 H39            2.9273    -1.9825    -2.2992 H       
  40 H40            4.9366    -3.3765    -2.5475 H       
  41 H41            6.5699    -1.6374     1.0171 H       
  42 H42            4.5594    -0.2424     1.2498 H       
  43 H43           10.2471    -5.5455     0.6620 H       
  44 H44           11.0335    -5.0203    -0.8460 H       
  45 H45           10.7875    -3.8593     0.4805 H       
  46 H46           -1.8930    -6.6162     1.7240 H       
  47 H47           -0.6358    -6.3871     0.4849 H       
  48 H48           -1.7777    -4.2441     1.1298 H       
  49 H49           -1.2897    -3.2969     3.3688 H       
  50 H50           -2.1968    -4.8224     3.5044 H       
  51 H51           -0.4451    -4.7974     3.8196 H       
  52 H52            0.4947    -8.4149     1.2569 H       
  53 H53            0.9475    -8.5213     2.9751 H       
  54 H54           -0.7624    -8.6440     2.4960 H       
  55 H55            0.5674     5.9185    -1.6440 H       
@<TRIPOS>BOND
   1    1    2 1
   2    1    8 2
   3    1    9 am
   4    2    3 ar
   5    2    7 ar
   6    3    4 ar
   7    3   10 1
   8    4    5 ar
   9    4   35 1
  10    5    6 ar
  11    5   23 1
  12    6    7 ar
  13    6   36 1
  14    7   37 1
  15    9   30 1
  16    9   38 1
  17   10   11 1
  18   11   12 ar
  19   11   16 ar
  20   12   13 ar
  21   12   39 1
  22   13   14 ar
  23   13   40 1
  24   14   15 ar
  25   14   18 1
  26   15   16 ar
  27   15   41 1
  28   16   42 1
  29   17   18 1
  30   17   21 1
  31   18   19 2
  32   19   20 1
  33   20   21 2
  34   21   22 1
  35   22   43 1
  36   22   44 1
  37   22   45 1
  38   23   25 1
  39   24   25 1
  40   24   27 1
  41   24   46 1
  42   24   47 1
  43   25   26 1
  44   25   48 1
  45   26   49 1
  46   26   50 1
  47   26   51 1
  48   27   28 1
  49   28   52 1
  50   28   53 1
  51   28   54 1
  52   29   30 1
  53   29   33 1
  54   30   31 2
  55   31   32 1
  56   32   33 2
  57   32   55 1
  58   33   34 1

#	End of record

