#	Name: ASD01870341
#	Creating user name:	WinNT
#	Creation time:	15. 06. 2019 19:39

#	Modifying user name:	WinNT
#	Modification time:	15. 06. 2019 19:39

#	Program:	/corina/corina34_cracker 3.40 0067  02.08.2006

@<TRIPOS>MOLECULE
ASD01870341
  58   63    0    0    0
SMALL
NO_CHARGES


@<TRIPOS>ATOM
   1 C1            -0.3272     0.7808     0.5359 C.2     
   2 C2            -0.5229    -0.7037     0.7062 C.3     
   3 O3             0.7924     1.2467     0.5177 O.2     
   4 C4             0.7930    -1.4906     0.8438 C.3     
   5 N5             0.1087    -2.2538     1.9056 N.am    
   6 C6            -0.8121    -1.1283     2.1574 C.3     
   7 S7             0.2981    -3.7658     2.5540 S.o2    
   8 C8             1.4298    -3.6196     3.8965 C.ar    
   9 C9             1.0184    -3.8672     5.1712 C.ar    
  10 C10            1.9003    -3.7568     6.2448 C.ar    
  11 C11            3.1999    -3.3982     6.0532 C.ar    
  12 C12            3.6603    -3.1351     4.7534 C.ar    
  13 C13            2.7626    -3.2530     3.6605 C.ar    
  14 O14           -0.9555    -4.1184     3.1226 O.2     
  15 O15            0.9499    -4.5485     1.5632 O.2     
  16 N16           -1.3962     1.5900     0.3982 N.am    
  17 C17           -1.3484     3.0471     0.2255 C.3     
  18 C18           -2.7970     3.5652     0.1790 C.3     
  19 C19           -3.6189     2.3996     0.8170 C.3     
  20 C20           -2.8030     1.1572     0.3899 C.3     
  21 C21           -2.9547     4.7088     1.1977 C.3     
  22 N22           -3.3584     4.1128     2.4825 N.3     
  23 C23           -3.4081     2.6452     2.3272 C.3     
  24 C24           -2.4806     4.4773     3.4990 C.ar    
  25 C25           -1.9069     5.7483     3.5275 C.ar    
  26 C26           -1.0419     6.0701     4.5521 C.ar    
  27 N27           -0.7554     5.1934     5.4963 N.ar    
  28 C28           -1.2776     3.9811     5.5046 C.ar    
  29 C29           -2.1563     3.5831     4.5191 C.ar    
  30 C30            4.9889    -2.7616     4.4940 C.ar    
  31 N31            5.3731    -2.5257     3.2615 N.ar    
  32 C32            4.5541    -2.6235     2.2231 C.ar    
  33 C33            3.2489    -2.9838     2.3680 C.ar    
  34 H34           -1.2136    -1.1277    -0.0227 H       
  35 H35            1.0426    -2.0864    -0.0342 H       
  36 H36            1.6285    -0.8900     1.2034 H       
  37 H37           -0.4481    -0.4212     2.9029 H       
  38 H38           -1.8440    -1.4348     2.3282 H       
  39 H39           -0.0071    -4.1531     5.3528 H       
  40 H40            1.5471    -3.9586     7.2453 H       
  41 H41            3.8714    -3.3164     6.8951 H       
  42 H42           -0.8210     3.5009     1.0646 H       
  43 H43           -0.8390     3.2916    -0.7066 H       
  44 H44           -3.1260     3.8256    -0.8270 H       
  45 H45           -4.6626     2.3667     0.5045 H       
  46 H46           -3.0993     0.8369    -0.6089 H       
  47 H47           -2.9481     0.3472     1.1047 H       
  48 H48           -2.0058     5.2322     1.3152 H       
  49 H49           -3.7212     5.4045     0.8562 H       
  50 H50           -4.2414     2.2334     2.8965 H       
  51 H51           -2.4691     2.1990     2.6547 H       
  52 H52           -2.1365     6.4701     2.7576 H       
  53 H53           -0.5930     7.0519     4.5822 H       
  54 H54           -1.0170     3.2938     6.2958 H       
  55 H55           -2.5802     2.5899     4.5320 H       
  56 H56            5.6932    -2.6682     5.3074 H       
  57 H57            4.9341    -2.4152     1.2338 H       
  58 H58            2.5991    -3.0575     1.5086 H       
@<TRIPOS>BOND
   1    1    2 1
   2    1    3 2
   3    1   16 am
   4    2    4 1
   5    2    6 1
   6    2   34 1
   7    4    5 1
   8    4   35 1
   9    4   36 1
  10    5    6 1
  11    5    7 am
  12    6   37 1
  13    6   38 1
  14    7    8 1
  15    7   14 2
  16    7   15 2
  17    8    9 ar
  18    8   13 ar
  19    9   10 ar
  20    9   39 1
  21   10   11 ar
  22   10   40 1
  23   11   12 ar
  24   11   41 1
  25   12   13 ar
  26   12   30 ar
  27   13   33 ar
  28   16   17 1
  29   16   20 1
  30   17   18 1
  31   17   42 1
  32   17   43 1
  33   18   19 1
  34   18   21 1
  35   18   44 1
  36   19   20 1
  37   19   23 1
  38   19   45 1
  39   20   46 1
  40   20   47 1
  41   21   22 1
  42   21   48 1
  43   21   49 1
  44   22   23 1
  45   22   24 1
  46   23   50 1
  47   23   51 1
  48   24   25 ar
  49   24   29 ar
  50   25   26 ar
  51   25   52 1
  52   26   27 ar
  53   26   53 1
  54   27   28 ar
  55   28   29 ar
  56   28   54 1
  57   29   55 1
  58   30   31 ar
  59   30   56 1
  60   31   32 ar
  61   32   33 ar
  62   32   57 1
  63   33   58 1

#	End of record

