#	Name: ASD01917741
#	Creating user name:	WinNT
#	Creation time:	15. 06. 2019 20:09

#	Modifying user name:	WinNT
#	Modification time:	15. 06. 2019 20:09

#	Program:	/corina/corina34_cracker 3.40 0067  02.08.2006

@<TRIPOS>MOLECULE
ASD01917741
  52   55    0    0    0
SMALL
NO_CHARGES


@<TRIPOS>ATOM
   1 C1             0.7199     0.4182    -0.9850 C.ar    
   2 C2             0.8567    -0.9578    -0.9318 C.ar    
   3 C3             2.1071    -1.5302    -0.7769 C.ar    
   4 C4             3.2269    -0.7316    -0.6747 C.ar    
   5 C5             3.0966     0.6587    -0.7280 C.ar    
   6 C6             1.8306     1.2295    -0.8842 C.ar    
   7 C7             4.2545     1.4945    -0.6221 C.1     
   8 C8             5.2039     2.1797    -0.5353 C.1     
   9 C9             6.3618     3.0155    -0.4294 C.ar    
  10 C10            6.2488     4.4113    -0.4809 C.ar    
  11 N11            7.3414     5.1459    -0.3790 N.ar    
  12 C12            8.5304     4.5807    -0.2302 C.ar    
  13 N13            8.6802     3.2654    -0.1772 N.ar    
  14 C14            7.6377     2.4596    -0.2656 C.ar    
  15 N15            9.6527     5.3909    -0.1271 N.am    
  16 C16            9.6481     6.7294    -0.1644 C.2     
  17 N17           10.8625     7.2806    -0.0439 N.am    
  18 C18           11.8670     6.2169     0.0976 C.3     
  19 C19           11.0324     4.9145     0.0465 C.3     
  20 C20           12.4795     6.2802     1.5110 C.3     
  21 C21           11.5365     5.4085     2.3763 C.3     
  22 C22           11.1794     4.2482     1.4291 C.3     
  23 H23           12.6191     6.2575    -0.6902 H       
  24 H24           11.3396     4.2621    -0.7708 H       
  25 C25           11.1455     8.7180    -0.0522 C.3     
  26 O26            8.6330     7.3851    -0.2964 O.2     
  27 C27           11.3956     9.1802    -1.4892 C.3     
  28 C28           11.6993    10.6797    -1.4970 C.3     
  29 O29           11.9329    11.1114    -2.8391 O.3     
  30 C30           12.2273    12.5046    -2.9586 C.3     
  31 H31           -0.2587     0.8577    -1.1102 H       
  32 H32           -0.0166    -1.5881    -1.0113 H       
  33 H33            2.2062    -2.6048    -0.7355 H       
  34 H34            4.2021    -1.1796    -0.5534 H       
  35 H35            1.7224     2.3032    -0.9265 H       
  36 H36            5.2829     4.8790    -0.6024 H       
  37 H37            7.7675     1.3883    -0.2213 H       
  38 H38           13.4872     5.8647     1.5087 H       
  39 H39           12.4907     7.3073     1.8759 H       
  40 H40           12.0559     5.0371     3.2596 H       
  41 H41           10.6441     5.9674     2.6580 H       
  42 H42           10.2382     3.7873     1.7290 H       
  43 H43           11.9795     3.5082     1.4144 H       
  44 H44           10.2935     9.2584     0.3602 H       
  45 H45           12.0299     8.9177     0.5528 H       
  46 H46           12.2440     8.6355    -1.9035 H       
  47 H47           10.5091     8.9858    -2.0929 H       
  48 H48           10.8509    11.2244    -1.0826 H       
  49 H49           12.5858    10.8741    -0.8933 H       
  50 H50           13.1247    12.7368    -2.3852 H       
  51 H51           12.3918    12.7526    -4.0072 H       
  52 H52           11.3899    13.0871    -2.5745 H       
@<TRIPOS>BOND
   1    1    2 ar
   2    1    6 ar
   3    1   31 1
   4    2    3 ar
   5    2   32 1
   6    3    4 ar
   7    3   33 1
   8    4    5 ar
   9    4   34 1
  10    5    6 ar
  11    5    7 1
  12    6   35 1
  13    7    8 3
  14    8    9 1
  15    9   10 ar
  16    9   14 ar
  17   10   11 ar
  18   10   36 1
  19   11   12 ar
  20   12   13 ar
  21   12   15 1
  22   13   14 ar
  23   14   37 1
  24   15   16 am
  25   15   19 1
  26   16   17 am
  27   16   26 2
  28   17   18 1
  29   17   25 1
  30   18   19 1
  31   18   20 1
  32   18   23 1
  33   19   24 1
  34   19   22 1
  35   20   21 1
  36   20   38 1
  37   20   39 1
  38   21   22 1
  39   21   40 1
  40   21   41 1
  41   22   42 1
  42   22   43 1
  43   25   27 1
  44   25   44 1
  45   25   45 1
  46   27   28 1
  47   27   46 1
  48   27   47 1
  49   28   29 1
  50   28   48 1
  51   28   49 1
  52   29   30 1
  53   30   50 1
  54   30   51 1
  55   30   52 1

#	End of record

