#	Name: ASD01870536
#	Creating user name:	WinNT
#	Creation time:	15. 06. 2019 19:39

#	Modifying user name:	WinNT
#	Modification time:	15. 06. 2019 19:39

#	Program:	/corina/corina34_cracker 3.40 0067  02.08.2006

@<TRIPOS>MOLECULE
ASD01870536
  39   41    0    0    0
SMALL
NO_CHARGES


@<TRIPOS>ATOM
   1 N1            -0.0159     1.3218     0.0093 N.2     
   2 C2             0.0021    -0.0041     0.0020 C.ar    
   3 C3             1.3553    -0.4303    -0.0132 C.ar    
   4 N4             1.3007     1.8031    -0.0007 N.pl3   
   5 C5            -1.0059    -1.0028     0.0063 C.ar    
   6 N6            -0.6346    -2.2735    -0.0041 N.ar    
   7 C7             0.6441    -2.6217    -0.0182 C.ar    
   8 N8             1.6184    -1.7450    -0.0228 N.ar    
   9 C9             1.8018     3.0710     0.0009 C.2     
  10 C10            2.1503     0.7299    -0.0146 C.2     
  11 C11            3.5361     0.9318    -0.0267 C.2     
  12 C12            4.0272     2.2054    -0.0246 C.2     
  13 C13            3.1363     3.2872    -0.0110 C.2     
  14 N14           -2.3433    -0.6573     0.0214 N.pl3   
  15 C15           -3.3699    -1.7024     0.0255 C.3     
  16 C16           -4.6658    -1.1468    -0.5683 C.3     
  17 C17           -4.4123    -0.6867    -2.0053 C.3     
  18 C18           -3.6235    -2.1625     1.4625 C.3     
  19 C19           -5.7380    -2.2383    -0.5639 C.3     
  20 C20           -5.1433     0.0404     0.2705 C.3     
  21 H21            0.8938    -3.6723    -0.0258 H       
  22 H22            1.1249     3.9124     0.0116 H       
  23 H23            4.2099     0.0878    -0.0373 H       
  24 H24            5.0933     2.3780    -0.0338 H       
  25 H25            3.5174     4.2977    -0.0095 H       
  26 H26           -2.6027     0.2773     0.0292 H       
  27 H27           -3.0298    -2.5482    -0.5721 H       
  28 H28           -4.0721    -1.5325    -2.6029 H       
  29 H29           -5.3355    -0.2908    -2.4283 H       
  30 H30           -3.6484     0.0909    -2.0084 H       
  31 H31           -4.3873    -2.9401     1.4656 H       
  32 H32           -2.7002    -2.5584     1.8856 H       
  33 H33           -3.9636    -1.3167     2.0601 H       
  34 H34           -5.9186    -2.5660     0.4598 H       
  35 H35           -6.6612    -1.8424    -0.9869 H       
  36 H36           -5.3979    -3.0840    -1.1615 H       
  37 H37           -4.3795     0.8180     0.2674 H       
  38 H38           -6.0665     0.4363    -0.1525 H       
  39 H39           -5.3239    -0.2873     1.2943 H       
@<TRIPOS>BOND
   1    1    2 2
   2    1    4 1
   3    2    3 ar
   4    2    5 ar
   5    3   10 2
   6    3    8 ar
   7    4   10 1
   8    4    9 1
   9    5    6 ar
  10    5   14 1
  11    6    7 ar
  12    7    8 ar
  13    7   21 1
  14    9   13 2
  15    9   22 1
  16   10   11 1
  17   11   12 2
  18   11   23 1
  19   12   13 1
  20   12   24 1
  21   13   25 1
  22   14   15 1
  23   14   26 1
  24   15   16 1
  25   15   18 1
  26   15   27 1
  27   16   17 1
  28   16   19 1
  29   16   20 1
  30   17   28 1
  31   17   29 1
  32   17   30 1
  33   18   31 1
  34   18   32 1
  35   18   33 1
  36   19   34 1
  37   19   35 1
  38   19   36 1
  39   20   37 1
  40   20   38 1
  41   20   39 1

#	End of record

