#	Name: ASD01916019
#	Creating user name:	WinNT
#	Creation time:	15. 06. 2019 20:06

#	Modifying user name:	WinNT
#	Modification time:	15. 06. 2019 20:06

#	Program:	/corina/corina34_cracker 3.40 0067  02.08.2006

@<TRIPOS>MOLECULE
ASD01916019
  47   49    0    0    0
SMALL
NO_CHARGES


@<TRIPOS>ATOM
   1 C1            -0.0567     1.4219    -0.5311 C.ar    
   2 C2            -0.0166     0.0302    -0.3654 C.ar    
   3 C3            -1.2115    -0.6482    -0.2242 C.ar    
   4 C4            -2.4090     0.0679    -0.2510 C.ar    
   5 C5            -3.6927    -0.6515    -0.1000 C.2     
   6 N6            -4.8365     0.0401     0.0728 N.am    
   7 O7            -3.7160    -1.8664    -0.1317 O.2     
   8 C8             1.1546     2.1706    -0.6821 C.1     
   9 C9             2.1477     2.7844    -0.8058 C.1     
  10 C10            3.3590     3.5331    -0.9568 C.ar    
  11 C11            3.3114     4.9203    -1.1216 C.ar    
  12 C12            5.7574     3.6088    -1.0804 C.ar    
  13 C13            4.4821     5.6345    -1.2665 C.ar    
  14 N14           -2.4119     1.3871    -0.4099 N.ar    
  15 C15           -1.2997     2.0689    -0.5528 C.ar    
  16 C16            4.5951     2.8811    -0.9343 C.ar    
  17 C17            5.7020     4.9812    -1.2493 C.ar    
  18 C18           -4.8074     1.4932     0.2883 C.3     
  19 C19           -5.5870     1.8178     1.5665 C.3     
  20 C20           -6.9945     1.2255     1.4650 C.3     
  21 C21           -6.9009    -0.2960     1.3296 C.3     
  22 C22           -6.1366    -0.6437     0.0432 C.3     
  23 O23           -7.7352     1.5541     2.6421 O.3     
  24 C24           -6.9410    -0.1798    -1.1727 C.3     
  25 C25           -5.9171    -2.1561    -0.0301 C.3     
  26 H26            0.9251    -0.4983    -0.3488 H       
  27 H27           -1.2189    -1.7205    -0.0949 H       
  28 H28            2.3601     5.4314    -1.1359 H       
  29 H29            6.7130     3.1058    -1.0677 H       
  30 H30            4.4469     6.7064    -1.3939 H       
  31 H31           -1.3423     3.1406    -0.6793 H       
  32 H32            4.6399     1.8101    -0.8025 H       
  33 H33            6.6155     5.5459    -1.3632 H       
  34 H34           -3.7750     1.8261     0.3955 H       
  35 H35           -5.2700     1.9977    -0.5599 H       
  36 H36           -5.0723     1.3877     2.4257 H       
  37 H37           -5.6550     2.8991     1.6864 H       
  38 H38           -7.4997     1.6375     0.5915 H       
  39 H39           -6.3739    -0.7062     2.1910 H       
  40 H40           -7.9042    -0.7193     1.2809 H       
  41 H41           -7.8354     2.5042     2.7913 H       
  42 H42           -7.0897     0.8988    -1.1200 H       
  43 H43           -6.3971    -0.4274    -2.0843 H       
  44 H44           -7.9094    -0.6801    -1.1802 H       
  45 H45           -6.8806    -2.6650    -0.0003 H       
  46 H46           -5.4038    -2.4042    -0.9591 H       
  47 H47           -5.3106    -2.4767     0.8169 H       
@<TRIPOS>BOND
   1    1    2 ar
   2    1    8 1
   3    1   15 ar
   4    2    3 ar
   5    2   26 1
   6    3    4 ar
   7    3   27 1
   8    4   14 ar
   9    4    5 1
  10    5    6 am
  11    5    7 2
  12    6   18 1
  13    6   22 1
  14    8    9 3
  15    9   10 1
  16   10   11 ar
  17   10   16 ar
  18   11   13 ar
  19   11   28 1
  20   12   17 ar
  21   12   16 ar
  22   12   29 1
  23   13   17 ar
  24   13   30 1
  25   14   15 ar
  26   15   31 1
  27   16   32 1
  28   17   33 1
  29   18   19 1
  30   18   34 1
  31   18   35 1
  32   19   20 1
  33   19   36 1
  34   19   37 1
  35   20   21 1
  36   20   23 1
  37   20   38 1
  38   21   22 1
  39   21   39 1
  40   21   40 1
  41   22   24 1
  42   22   25 1
  43   23   41 1
  44   24   42 1
  45   24   43 1
  46   24   44 1
  47   25   45 1
  48   25   46 1
  49   25   47 1

#	End of record

