#	Name: ASD06710039
#	Creating user name:	WinNT
#	Creation time:	15. 06. 2019 21:08

#	Modifying user name:	WinNT
#	Modification time:	15. 06. 2019 21:08

#	Program:	/corina/corina34_cracker 3.40 0067  02.08.2006

@<TRIPOS>MOLECULE
ASD06710039
  42   44    0    0    0
SMALL
NO_CHARGES


@<TRIPOS>ATOM
   1 C1             2.4610    -0.0173     0.1512 C.ar    
   2 C2             1.7454    -0.9459    -0.5734 C.ar    
   3 C3             1.1583    -0.5929    -1.7783 C.ar    
   4 C4             1.2878     0.7010    -2.2628 C.ar    
   5 C5             2.5965     1.2900    -0.3302 C.ar    
   6 C6             3.2876     2.4670     0.2152 C.2     
   7 C7             1.9992     1.6343    -1.5472 C.ar    
   8 C8             2.3211     3.0891    -1.7881 C.3     
   9 C9             3.1491     3.5221    -0.6008 C.2     
  10 C10            3.7045     4.8647    -0.3785 C.2     
  11 N11            2.8482     5.9545    -0.2033 N.pl3   
  12 C12            5.0313     5.0432    -0.3438 C.2     
  13 C13            1.3981     5.7489    -0.1705 C.3     
  14 C14            3.4005     7.3031    -0.0525 C.3     
  15 C15            3.6589     7.8952    -1.4140 C.2     
  16 C16            3.4643     9.0241    -3.3108 C.2     
  17 C17            2.8290     8.7126    -2.0868 C.2     
  18 O18            4.7594     7.7010    -2.1590 O.3     
  19 C19            4.6460     8.3815    -3.3112 C.2     
  20 C20            0.8517     6.1865     1.1900 C.3     
  21 C21            0.7402     6.5784    -1.2750 C.3     
  22 F22            0.4594    -1.5100    -2.4823 F       
  23 H23            2.9129    -0.2967     1.0914 H       
  24 H24            1.6418    -1.9542    -0.2005 H       
  25 H25            0.8301     0.9744    -3.2020 H       
  26 H26            3.8328     2.4804     1.1473 H       
  27 H27            2.8952     3.2009    -2.7079 H       
  28 H28            1.4032     3.6744    -1.8423 H       
  29 H29            5.4393     6.0297    -0.1805 H       
  30 H30            5.6932     4.2006    -0.4792 H       
  31 H31            1.1772     4.6933    -0.3283 H       
  32 H32            2.6892     7.9287     0.4867 H       
  33 H33            4.3356     7.2525     0.5051 H       
  34 H34            3.0765     9.6587    -4.0940 H       
  35 H35            1.8626     9.0631    -1.7557 H       
  36 H36            5.3791     8.4079    -4.1039 H       
  37 H37            1.0726     7.2421     1.3478 H       
  38 H38           -0.2273     6.0335     1.2144 H       
  39 H39            1.3203     5.5955     1.9769 H       
  40 H40            1.1322     6.2692    -2.2440 H       
  41 H41           -0.3383     6.4226    -1.2530 H       
  42 H42            0.9581     7.6344    -1.1151 H       
@<TRIPOS>BOND
   1    1    2 ar
   2    1    5 ar
   3    1   23 1
   4    2    3 ar
   5    2   24 1
   6    3    4 ar
   7    3   22 1
   8    4    7 ar
   9    4   25 1
  10    5    7 ar
  11    5    6 1
  12    6    9 2
  13    6   26 1
  14    7    8 1
  15    8    9 1
  16    8   27 1
  17    8   28 1
  18    9   10 1
  19   10   11 1
  20   10   12 2
  21   11   13 1
  22   11   14 1
  23   12   29 1
  24   12   30 1
  25   13   20 1
  26   13   21 1
  27   13   31 1
  28   14   15 1
  29   14   32 1
  30   14   33 1
  31   15   18 1
  32   15   17 2
  33   16   17 1
  34   16   19 2
  35   16   34 1
  36   17   35 1
  37   18   19 1
  38   19   36 1
  39   20   37 1
  40   20   38 1
  41   20   39 1
  42   21   40 1
  43   21   41 1
  44   21   42 1

#	End of record

