#	Name: ASD03092853
#	Creating user name:	WinNT
#	Creation time:	15. 06. 2019 20:33

#	Modifying user name:	WinNT
#	Modification time:	15. 06. 2019 20:33

#	Program:	/corina/corina34_cracker 3.40 0067  02.08.2006

@<TRIPOS>MOLECULE
ASD03092853
  57   60    0    0    0
SMALL
NO_CHARGES


@<TRIPOS>ATOM
   1 C1            -0.0240     1.4304     0.0024 C.3     
   2 O2            -0.0037     0.0015     0.0014 O.3     
   3 C3            -1.3008    -0.5982     0.0072 C.3     
   4 H4            -2.0016     0.0569     0.5248 H       
   5 C5            -1.7705    -0.8113    -1.4332 C.3     
   6 C6            -3.1593    -1.4533    -1.4271 C.3     
   7 C7            -3.0945    -2.8017    -0.7070 C.3     
   8 H8            -2.3937    -3.4567    -1.2246 H       
   9 C9            -2.6248    -2.5886     0.7334 C.3     
  10 C10           -1.2360    -1.9466     0.7273 C.3     
  11 N11           -4.4243    -3.4165    -0.7011 N.am    
  12 C12           -4.5475    -4.7548    -0.5996 C.2     
  13 O13           -3.5563    -5.4589    -0.6075 O.2     
  14 N14           -5.7695    -5.3126    -0.4894 N.am    
  15 C15           -6.9681    -4.4715    -0.3684 C.3     
  16 C16           -7.7519    -4.9060     0.8740 C.3     
  17 C17           -8.0426    -6.4062     0.7901 C.3     
  18 C18           -6.7238    -7.1819     0.7553 C.3     
  19 C19           -5.9288    -6.7732    -0.4941 C.3     
  20 N20           -8.8208    -6.8188     1.9608 N.pl3   
  21 N21           -8.4106    -6.6955     3.2923 N.2     
  22 C22           -9.3327    -7.1554     4.0889 C.2     
  23 C23          -10.4421    -7.6226     3.2640 C.ar    
  24 C24          -11.6837    -8.2039     3.5426 C.ar    
  25 C25          -12.5190    -8.5366     2.5156 C.ar    
  26 C26          -12.1477    -8.3034     1.1974 C.ar    
  27 C27          -10.9405    -7.7369     0.9001 C.ar    
  28 C28          -10.0697    -7.3820     1.9270 C.ar    
  29 C29          -13.8566    -9.1633     2.8145 C.3     
  30 F30          -14.8189    -8.1591     2.9649 F       
  31 F31          -14.2229   -10.0060     1.7595 F       
  32 F32          -13.7696    -9.9067     3.9964 F       
  33 H33            0.9984     1.8083    -0.0022 H       
  34 H34           -0.5471     1.7870    -0.8849 H       
  35 H35           -0.5387     1.7858     0.8951 H       
  36 H36           -1.8167     0.1494    -1.9463 H       
  37 H37           -1.0697    -1.4663    -1.9508 H       
  38 H38           -3.8601    -0.7983    -0.9095 H       
  39 H39           -3.4939    -1.6051    -2.4533 H       
  40 H40           -3.3256    -1.9336     1.2510 H       
  41 H41           -2.5786    -3.5493     1.2464 H       
  42 H42           -0.5352    -2.6016     0.2097 H       
  43 H43           -0.9014    -1.7947     1.7534 H       
  44 H44           -5.2160    -2.8604    -0.7702 H       
  45 H45           -6.6730    -3.4271    -0.2675 H       
  46 H46           -7.5910    -4.5934    -1.2546 H       
  47 H47           -7.1622    -4.6991     1.7670 H       
  48 H48           -8.6915    -4.3555     0.9223 H       
  49 H49           -8.6112    -6.6158    -0.1159 H       
  50 H50           -6.1437    -6.9535     1.6494 H       
  51 H51           -6.9316    -8.2513     0.7191 H       
  52 H52           -6.4687    -7.0789    -1.3903 H       
  53 H53           -4.9478    -7.2478    -0.4762 H       
  54 H54           -9.2848    -7.1855     5.1674 H       
  55 H55          -11.9796    -8.3888     4.5647 H       
  56 H56          -12.8215    -8.5735     0.3977 H       
  57 H57          -10.6639    -7.5610    -0.1290 H       
@<TRIPOS>BOND
   1    1    2 1
   2    1   33 1
   3    1   34 1
   4    1   35 1
   5    2    3 1
   6    3    4 1
   7    3   10 1
   8    3    5 1
   9    5    6 1
  10    5   36 1
  11    5   37 1
  12    6    7 1
  13    6   38 1
  14    6   39 1
  15    7    8 1
  16    7    9 1
  17    7   11 1
  18    9   10 1
  19    9   40 1
  20    9   41 1
  21   10   42 1
  22   10   43 1
  23   11   12 am
  24   11   44 1
  25   12   13 2
  26   12   14 am
  27   14   19 1
  28   14   15 1
  29   15   16 1
  30   15   45 1
  31   15   46 1
  32   16   17 1
  33   16   47 1
  34   16   48 1
  35   17   18 1
  36   17   20 1
  37   17   49 1
  38   18   19 1
  39   18   50 1
  40   18   51 1
  41   19   52 1
  42   19   53 1
  43   20   28 1
  44   20   21 1
  45   21   22 2
  46   22   23 1
  47   22   54 1
  48   23   28 ar
  49   23   24 ar
  50   24   25 ar
  51   24   55 1
  52   25   26 ar
  53   25   29 1
  54   26   27 ar
  55   26   56 1
  56   27   28 ar
  57   27   57 1
  58   29   30 1
  59   29   31 1
  60   29   32 1

#	End of record

