#	Name: ASD00841898
#	Creating user name:	WinNT
#	Creation time:	15. 06. 2019 18:43

#	Modifying user name:	WinNT
#	Modification time:	15. 06. 2019 18:43

#	Program:	/corina/corina34_cracker 3.40 0067  02.08.2006

@<TRIPOS>MOLECULE
ASD00841898
  81   86    0    0    0
SMALL
NO_CHARGES


@<TRIPOS>ATOM
   1 C1             1.0127     1.5603    -0.3103 C.ar    
   2 C2             1.3194     0.2352    -0.5824 C.ar    
   3 C3             1.2501    -0.7124     0.4288 C.ar    
   4 C4             0.8761    -0.3342     1.7035 C.ar    
   5 C5             0.5704     0.9875     1.9722 C.ar    
   6 C6             0.6392     1.9335     0.9665 C.ar    
   7 C7             1.5821    -2.1530     0.1365 C.3     
   8 C8             1.3136    -3.0161     1.3509 C.2     
   9 C9             0.7784    -2.6536    -1.0653 C.3     
  10 C10           -0.6910    -2.4323    -0.8144 C.2     
  11 N11           -1.6017    -2.8913    -1.6955 N.am    
  12 O12           -1.0540    -1.8411     0.1804 O.2     
  13 C13           -3.0317    -2.5900    -1.5291 C.3     
  14 C14           -3.5667    -2.0240    -2.8488 C.3     
  15 N15           -3.2509    -2.9545    -3.9407 N.3     
  16 C16           -1.7995    -3.0968    -4.1166 C.3     
  17 C17           -1.1913    -3.7016    -2.8523 C.3     
  18 C18           -3.8943    -2.5346    -5.1928 C.3     
  19 C19           -3.4443    -3.4530    -6.3324 C.3     
  20 C20           -4.1641    -3.0490    -7.6211 C.3     
  21 N21           -5.6157    -3.1557    -7.4266 N.3     
  22 C22           -6.0779    -2.2478    -6.3690 C.3     
  23 C23           -5.4153    -2.6279    -5.0429 C.3     
  24 H24           -6.1097    -2.9864    -8.2899 H       
  25 O25            0.2426    -3.1789     1.8963 O.2     
  26 N26            2.4847    -3.5675     1.7112 N.am    
  27 C27            3.0646    -2.3153    -0.1095 C.ar    
  28 C28            3.5320    -3.1770     0.8752 C.ar    
  29 C29            3.9183    -1.7953    -1.0560 C.ar    
  30 C30            5.2618    -2.1303    -1.0334 C.ar    
  31 C31            5.7407    -2.9887    -0.0565 C.ar    
  32 C32            4.8842    -3.5109     0.8938 C.ar    
  33 Cl33           6.3423    -1.4776    -2.2251 Cl      
  34 F34            7.0512    -3.3164    -0.0331 F       
  35 C35            2.4116    -6.2308     2.4014 C.ar    
  36 C36            3.4818    -6.9671     1.9287 C.ar    
  37 C37            1.1438    -6.7816     2.4103 C.ar    
  38 C38            0.9462    -8.0687     1.9465 C.ar    
  39 C39            2.0163    -8.8049     1.4735 C.ar    
  40 C40            3.2841    -8.2541     1.4646 C.ar    
  41 H41            1.8619    -9.8105     1.1112 H       
  42 H42            4.4724    -6.5367     1.9217 H       
  43 O43            1.6867    -0.1345    -1.8376 O.3     
  44 C44            2.1695     0.2995    -4.1655 C.3     
  45 C45            1.6277     0.8693    -2.8529 C.3     
  46 S46            2.6647    -4.5927     2.9992 S.o2    
  47 O47            4.0294    -4.5136     3.3873 O.2     
  48 O48            1.5877    -4.3178     3.8845 O.2     
  49 H49            1.0702     2.3004    -1.0947 H       
  50 H50            0.8220    -1.0713     2.4910 H       
  51 H51            0.2775     1.2811     2.9694 H       
  52 H52            0.3999     2.9651     1.1788 H       
  53 H53            1.0810    -2.1065    -1.9582 H       
  54 H54            0.9660    -3.7176    -1.2101 H       
  55 H55           -3.5712    -3.5028    -1.2767 H       
  56 H56           -3.1609    -1.8537    -0.7358 H       
  57 H57           -4.6472    -1.8982    -2.7791 H       
  58 H58           -3.0998    -1.0592    -3.0466 H       
  59 H59           -1.5983    -3.7490    -4.9665 H       
  60 H60           -1.3571    -2.1170    -4.2968 H       
  61 H61           -0.1044    -3.7029    -2.9332 H       
  62 H62           -1.5530    -4.7218    -2.7239 H       
  63 H63           -3.6122    -1.5066    -5.4204 H       
  64 H64           -2.3674    -3.3586    -6.4722 H       
  65 H65           -3.6908    -4.4858    -6.0863 H       
  66 H66           -3.9063    -2.0205    -7.8740 H       
  67 H67           -3.8567    -3.7101    -8.4313 H       
  68 H68           -5.8111    -1.2232    -6.6278 H       
  69 H69           -7.1605    -2.3270    -6.2699 H       
  70 H70           -5.6928    -3.6478    -4.7766 H       
  71 H71           -5.7466    -1.9441    -4.2614 H       
  72 H72            3.5406    -1.1270    -1.8157 H       
  73 H73            5.2639    -4.1791     1.6526 H       
  74 H74            0.3077    -6.2064     2.7798 H       
  75 H75           -0.0442    -8.4993     1.9541 H       
  76 H76            4.1203    -8.8294     1.0953 H       
  77 H77            1.5156    -0.5011    -4.5114 H       
  78 H78            2.2062     1.0887    -4.9164 H       
  79 H79            3.1726    -0.0950    -4.0036 H       
  80 H80            0.5936     1.1841    -2.9929 H       
  81 H81            2.2308     1.7260    -2.5524 H       
@<TRIPOS>BOND
   1    1    2 ar
   2    1    6 ar
   3    1   49 1
   4    2    3 ar
   5    2   43 1
   6    3    4 ar
   7    3    7 1
   8    4    5 ar
   9    4   50 1
  10    5    6 ar
  11    5   51 1
  12    6   52 1
  13    7    8 1
  14    7    9 1
  15    7   27 1
  16    8   25 2
  17    8   26 am
  18    9   10 1
  19    9   53 1
  20    9   54 1
  21   10   11 am
  22   10   12 2
  23   11   13 1
  24   11   17 1
  25   13   14 1
  26   13   55 1
  27   13   56 1
  28   14   15 1
  29   14   57 1
  30   14   58 1
  31   15   16 1
  32   15   18 1
  33   16   17 1
  34   16   59 1
  35   16   60 1
  36   17   61 1
  37   17   62 1
  38   18   19 1
  39   18   23 1
  40   18   63 1
  41   19   20 1
  42   19   64 1
  43   19   65 1
  44   20   21 1
  45   20   66 1
  46   20   67 1
  47   21   22 1
  48   21   24 1
  49   22   23 1
  50   22   68 1
  51   22   69 1
  52   23   70 1
  53   23   71 1
  54   26   46 am
  55   26   28 1
  56   27   28 ar
  57   27   29 ar
  58   28   32 ar
  59   29   30 ar
  60   29   72 1
  61   30   31 ar
  62   30   33 1
  63   31   32 ar
  64   31   34 1
  65   32   73 1
  66   35   36 ar
  67   35   37 ar
  68   35   46 1
  69   36   42 1
  70   36   40 ar
  71   37   38 ar
  72   37   74 1
  73   38   39 ar
  74   38   75 1
  75   39   40 ar
  76   39   41 1
  77   40   76 1
  78   43   45 1
  79   44   45 1
  80   44   77 1
  81   44   78 1
  82   44   79 1
  83   45   80 1
  84   45   81 1
  85   46   47 2
  86   46   48 2

#	End of record

