#	Name: ASD01916191
#	Creating user name:	WinNT
#	Creation time:	15. 06. 2019 20:06

#	Modifying user name:	WinNT
#	Modification time:	15. 06. 2019 20:06

#	Program:	/corina/corina34_cracker 3.40 0067  02.08.2006

@<TRIPOS>MOLECULE
ASD01916191
  41   44    0    0    0
SMALL
NO_CHARGES


@<TRIPOS>ATOM
   1 C1            -0.0167     1.3784     0.0096 C.ar    
   2 C2             0.0021    -0.0041     0.0020 C.ar    
   3 C3             1.2074    -0.6814    -0.0127 C.ar    
   4 C4             2.3963     0.0221    -0.0203 C.ar    
   5 C5             2.3802     1.4093    -0.0132 C.ar    
   6 C6             1.1695     2.0865     0.0021 C.ar    
   7 O7             3.5484     2.1036    -0.0202 O.3     
   8 C8             3.4557     3.5296    -0.0122 C.3     
   9 C9             4.8408     4.1231    -0.0217 C.2     
  10 N10            5.1302     5.4313    -0.0172 N.2     
  11 C11            6.4366     5.5877    -0.0284 C.2     
  12 N12            7.0179     4.3420    -0.0405 N.am    
  13 C13            5.9941     3.4263    -0.0302 C.2     
  14 C14            7.3038     6.7691    -0.0307 C.2     
  15 C15            8.6374     6.5839    -0.0445 C.2     
  16 N16            9.1537     5.3070    -0.0561 N.am    
  17 C17            8.3563     4.2252    -0.0534 C.2     
  18 O18            8.8567     3.1173    -0.0638 O.2     
  19 C19           10.5355     5.1328    -0.0709 C.ar    
  20 N20           11.0604     3.9176    -0.1820 N.ar    
  21 C21           12.3723     3.7483    -0.1968 C.ar    
  22 N22           13.2060     4.7712    -0.1021 N.ar    
  23 C23           12.7527     6.0107     0.0113 C.ar    
  24 C24           11.3885     6.2323     0.0250 C.ar    
  25 O25           12.8748     2.4956    -0.3115 O.3     
  26 C26           14.2979     2.3660    -0.3226 C.3     
  27 H27           -0.9595     1.9052     0.0170 H       
  28 H28           -0.9263    -0.5558     0.0080 H       
  29 H29            1.2194    -1.7613    -0.0179 H       
  30 H30            3.3375    -0.5074    -0.0315 H       
  31 H31            1.1543     3.1664     0.0073 H       
  32 H32            2.9113     3.8632    -0.8956 H       
  33 H33            2.9274     3.8543     0.8842 H       
  34 H34            6.0945     2.3509    -0.0350 H       
  35 H35            6.8835     7.7640    -0.0218 H       
  36 H36            9.3015     7.4356    -0.0469 H       
  37 H37           13.4413     6.8391     0.0883 H       
  38 H38           10.9921     7.2328     0.1165 H       
  39 H39           14.7069     2.9239    -1.1649 H       
  40 H40           14.7060     2.7613     0.6076 H       
  41 H41           14.5661     1.3139    -0.4189 H       
@<TRIPOS>BOND
   1    1    2 ar
   2    1    6 ar
   3    1   27 1
   4    2    3 ar
   5    2   28 1
   6    3    4 ar
   7    3   29 1
   8    4    5 ar
   9    4   30 1
  10    5    6 ar
  11    5    7 1
  12    6   31 1
  13    7    8 1
  14    8    9 1
  15    8   32 1
  16    8   33 1
  17    9   10 1
  18    9   13 2
  19   10   11 2
  20   11   12 1
  21   11   14 1
  22   12   13 1
  23   12   17 am
  24   13   34 1
  25   14   15 2
  26   14   35 1
  27   15   16 1
  28   15   36 1
  29   16   17 am
  30   16   19 1
  31   17   18 2
  32   19   20 ar
  33   19   24 ar
  34   20   21 ar
  35   21   22 ar
  36   21   25 1
  37   22   23 ar
  38   23   24 ar
  39   23   37 1
  40   24   38 1
  41   25   26 1
  42   26   39 1
  43   26   40 1
  44   26   41 1

#	End of record

