#	Name: ASD01120218
#	Creating user name:	WinNT
#	Creation time:	15. 06. 2019 18:59

#	Modifying user name:	WinNT
#	Modification time:	15. 06. 2019 18:59

#	Program:	/corina/corina34_cracker 3.40 0067  02.08.2006

@<TRIPOS>MOLECULE
ASD01120218
  44   47    0    0    0
SMALL
NO_CHARGES


@<TRIPOS>ATOM
   1 C1            -0.1507     0.6869     0.8003 C.ar    
   2 C2            -0.2726    -0.6946     0.7419 C.ar    
   3 C3            -1.5235    -1.2820     0.5765 C.ar    
   4 C4            -2.6578    -0.4758     0.4694 C.ar    
   5 C5            -2.5304     0.9183     0.5289 C.ar    
   6 C6            -1.2701     1.4935     0.7003 C.ar    
   7 O7            -3.9762    -0.7334     0.3074 O.3     
   8 C8            -4.6312     0.4401     0.2687 C.2     
   9 N9            -3.7857     1.4303     0.3990 N.2     
  10 N10           -5.9921     0.5795     0.1149 N.am    
  11 S11           -6.6864     2.0801     0.2074 S.o2    
  12 O12           -5.9280     2.9265    -0.6457 O.2     
  13 O13           -8.0864     1.8841     0.0629 O.2     
  14 C14           -6.4336     2.6715     1.8478 C.ar    
  15 C15           -7.0104     2.0112     2.9177 C.ar    
  16 C16           -6.8115     2.4754     4.2060 C.ar    
  17 C17           -6.0362     3.5982     4.4238 C.ar    
  18 C18           -5.4588     4.2585     3.3536 C.ar    
  19 C19           -5.6541     3.7920     2.0660 C.ar    
  20 Cl20          -7.9844     0.6005     2.6442 Cl      
  21 Cl21          -4.4848     5.6693     3.6271 Cl      
  22 O22            1.0760     1.2506     0.9625 O.3     
  23 C23            1.1324     2.6776     1.0148 C.3     
  24 C24           -2.5851    -3.4135     1.3144 C.ar    
  25 C25           -2.7009    -4.7863     1.2539 C.ar    
  26 C26           -1.8876    -5.5159     0.3974 C.ar    
  27 C27           -0.9560    -4.8664    -0.4011 C.ar    
  28 C28           -0.8357    -3.4937    -0.3455 C.ar    
  29 C29           -1.6506    -2.7583     0.5139 C.ar    
  30 O30           -2.0034    -6.8686     0.3407 O.3     
  31 H31            0.6068    -1.3161     0.8247 H       
  32 H32           -1.1680     2.5677     0.7467 H       
  33 H33           -6.5444    -0.2012    -0.0477 H       
  34 H34           -7.2624     1.9602     5.0413 H       
  35 H35           -5.8812     3.9607     5.4293 H       
  36 H36           -5.2032     4.3071     1.2307 H       
  37 H37            0.5330     3.0345     1.8523 H       
  38 H38            2.1666     2.9957     1.1465 H       
  39 H39            0.7407     3.0909     0.0854 H       
  40 H40           -3.2209    -2.8461     1.9779 H       
  41 H41           -3.4247    -5.2945     1.8738 H       
  42 H42           -0.3247    -5.4366    -1.0664 H       
  43 H43           -0.1103    -2.9890    -0.9663 H       
  44 H44           -2.6407    -7.1816    -0.3159 H       
@<TRIPOS>BOND
   1    1    2 ar
   2    1   22 1
   3    1    6 ar
   4    2    3 ar
   5    2   31 1
   6    3    4 ar
   7    3   29 1
   8    4    5 ar
   9    4    7 1
  10    5    6 ar
  11    5    9 1
  12    6   32 1
  13    7    8 1
  14    8    9 2
  15    8   10 1
  16   10   11 am
  17   10   33 1
  18   11   12 2
  19   11   13 2
  20   11   14 1
  21   14   15 ar
  22   14   19 ar
  23   15   16 ar
  24   15   20 1
  25   16   17 ar
  26   16   34 1
  27   17   18 ar
  28   17   35 1
  29   18   19 ar
  30   18   21 1
  31   19   36 1
  32   22   23 1
  33   23   37 1
  34   23   38 1
  35   23   39 1
  36   24   25 ar
  37   24   29 ar
  38   24   40 1
  39   25   26 ar
  40   25   41 1
  41   26   27 ar
  42   26   30 1
  43   27   28 ar
  44   27   42 1
  45   28   29 ar
  46   28   43 1
  47   30   44 1

#	End of record

