#	Name: ASD01310036
#	Creating user name:	WinNT
#	Creation time:	15. 06. 2019 19:15

#	Modifying user name:	WinNT
#	Modification time:	15. 06. 2019 19:15

#	Program:	/corina/corina34_cracker 3.40 0067  02.08.2006

@<TRIPOS>MOLECULE
ASD01310036
  25   24    0    0    0
SMALL
NO_CHARGES


@<TRIPOS>ATOM
   1 O1            -0.0173     1.4248     0.0099 O.3     
   2 O2            -1.5743    -0.5821    -2.3992 O.3     
   3 O3            -1.4583    -0.5136     2.4294 O.3     
   4 O4            -3.8513    -4.7707     0.0132 O.3     
   5 O5            -1.6471    -4.6148    -0.0070 O.2     
   6 N6            -1.4134    -2.0025     0.0048 N.3     
   7 C7            -1.4333    -0.5336     0.0129 C.3     
   8 C8            -2.1494    -0.0402     1.2717 C.3     
   9 C9             0.0021    -0.0041     0.0020 C.3     
  10 C10           -2.1733    -0.0268    -1.2266 C.3     
  11 C11           -2.7775    -2.5475     0.0149 C.3     
  12 C12           -2.7169    -4.0533     0.0062 C.2     
  13 H13           -3.1720    -0.4175     1.2794 H       
  14 H14           -2.1642     1.0497     1.2777 H       
  15 H15            0.5123    -0.3556    -0.8948 H       
  16 H16            0.5293    -0.3651     0.8851 H       
  17 H17           -2.1116     1.0607    -1.2673 H       
  18 H18           -3.2191    -0.3297    -1.1746 H       
  19 H19           -0.8899    -2.3527    -0.7835 H       
  20 H20           -3.2970    -2.2100     0.9117 H       
  21 H21           -3.3140    -2.2004    -0.8682 H       
  22 H22           -1.8577    -0.2383     3.2659 H       
  23 H23           -1.9936    -0.3032    -3.2248 H       
  24 H24            0.8606     1.8301     0.0037 H       
  25 H25           -3.7619    -5.7336     0.0072 H       
@<TRIPOS>BOND
   1    1    9 1
   2    1   24 1
   3    2   10 1
   4    2   23 1
   5    3    8 1
   6    3   22 1
   7    4   12 1
   8    4   25 1
   9    5   12 2
  10    6    7 1
  11    6   11 1
  12    6   19 1
  13    7    8 1
  14    7    9 1
  15    7   10 1
  16    8   13 1
  17    8   14 1
  18    9   15 1
  19    9   16 1
  20   10   17 1
  21   10   18 1
  22   11   12 1
  23   11   20 1
  24   11   21 1

#	End of record

