#	Name: ASD01150050
#	Creating user name:	WinNT
#	Creation time:	15. 06. 2019 19:03

#	Modifying user name:	WinNT
#	Modification time:	15. 06. 2019 19:03

#	Program:	/corina/corina34_cracker 3.40 0067  02.08.2006

@<TRIPOS>MOLECULE
ASD01150050
  44   45    0    0    0
SMALL
NO_CHARGES


@<TRIPOS>ATOM
   1 C1            -0.0168     1.3864     0.0097 C.2     
   2 C2             0.0021    -0.0041     0.0020 C.2     
   3 N3            -1.2646    -0.4290     0.0118 N.2     
   4 C4            -2.0866     0.5993     0.0252 C.2     
   5 N5            -1.3664     1.7526     0.0307 N.pl3   
   6 N6            -3.4599     0.5194     0.0378 N.3     
   7 C7            -3.9058    -0.8803     0.0351 C.3     
   8 C8            -4.0191     1.2478     1.1844 C.3     
   9 C9            -1.8779     3.0566     0.0449 C.ar    
  10 C10           -1.6525     3.8804     1.1398 C.ar    
  11 C11           -2.1582     5.1656     1.1509 C.ar    
  12 C12           -2.8883     5.6322     0.0732 C.ar    
  13 C13           -3.1145     4.8143    -1.0186 C.ar    
  14 C14           -2.6066     3.5300    -1.0381 C.ar    
  15 N15            1.1326    -0.8057    -0.0138 N.pl3   
  16 C16            1.0952     2.2490     0.0037 C.2     
  17 O17            0.9119     3.5872     0.0131 O.3     
  18 O18            2.2229     1.7888    -0.0100 O.2     
  19 C19            2.0853     4.4027     0.0063 C.3     
  20 C20            2.9034     4.1087    -1.2528 C.3     
  21 C21            1.6809     5.8783     0.0187 C.3     
  22 C22            2.9279     4.0944     1.2456 C.3     
  23 H23           -3.5181    -1.3869     0.9190 H       
  24 H24           -4.9952    -0.9146     0.0453 H       
  25 H25           -3.5350    -1.3780    -0.8609 H       
  26 H26           -3.7306     2.2972     1.1239 H       
  27 H27           -5.1061     1.1684     1.1702 H       
  28 H28           -3.6355     0.8184     2.1099 H       
  29 H29           -1.0827     3.5164     1.9819 H       
  30 H30           -1.9835     5.8067     2.0023 H       
  31 H31           -3.2830     6.6374     0.0844 H       
  32 H32           -3.6854     5.1814    -1.8586 H       
  33 H33           -2.7836     2.8916    -1.8911 H       
  34 H34            2.0141    -0.4010    -0.0205 H       
  35 H35            1.0423    -1.7715    -0.0180 H       
  36 H36            2.3031     4.3283    -2.1357 H       
  37 H37            3.7985     4.7308    -1.2580 H       
  38 H38            3.1915     3.0575    -1.2616 H       
  39 H39            1.0981     6.0878     0.9156 H       
  40 H40            2.5760     6.5004     0.0134 H       
  41 H41            1.0806     6.0979    -0.8642 H       
  42 H42            3.2161     3.0432     1.2367 H       
  43 H43            3.8230     4.7165     1.2403 H       
  44 H44            2.3451     4.3039     2.1425 H       
@<TRIPOS>BOND
   1    1    2 2
   2    1   16 1
   3    1    5 1
   4    2    3 1
   5    2   15 1
   6    3    4 2
   7    4    5 1
   8    4    6 1
   9    5    9 1
  10    6    7 1
  11    6    8 1
  12    7   23 1
  13    7   24 1
  14    7   25 1
  15    8   26 1
  16    8   27 1
  17    8   28 1
  18    9   10 ar
  19    9   14 ar
  20   10   11 ar
  21   10   29 1
  22   11   12 ar
  23   11   30 1
  24   12   13 ar
  25   12   31 1
  26   13   14 ar
  27   13   32 1
  28   14   33 1
  29   15   34 1
  30   15   35 1
  31   16   17 1
  32   16   18 2
  33   17   19 1
  34   19   20 1
  35   19   21 1
  36   19   22 1
  37   20   36 1
  38   20   37 1
  39   20   38 1
  40   21   39 1
  41   21   40 1
  42   21   41 1
  43   22   42 1
  44   22   43 1
  45   22   44 1

#	End of record

