#	Name: ASD08830120
#	Creating user name:	WinNT
#	Creation time:	15. 06. 2019 21:19

#	Modifying user name:	WinNT
#	Modification time:	15. 06. 2019 21:19

#	Program:	/corina/corina34_cracker 3.40 0067  02.08.2006

@<TRIPOS>MOLECULE
ASD08830120
  37   38    0    0    0
SMALL
NO_CHARGES


@<TRIPOS>ATOM
   1 C1            -0.0179     1.4676     0.0101 C.ar    
   2 C2             0.0021    -0.0041     0.0020 C.2     
   3 C3            -1.2926    -0.7753     0.0102 C.3     
   4 C4            -0.9927    -2.2755    -0.0007 C.3     
   5 N5            -2.2547    -3.0273     0.0073 N.3     
   6 O6             1.0602    -0.5960    -0.0113 O.2     
   7 C7             1.1811     2.1859     0.0025 C.ar    
   8 C8            -0.0624     4.2408     0.0260 C.ar    
   9 C9            -1.2506     3.5324     0.0272 C.ar    
  10 C10           -1.2369     2.1535     0.0196 C.ar    
  11 C11           -2.0181    -4.4568    -0.2410 C.3     
  12 C12           -3.3490    -5.2097    -0.1649 C.3     
  13 O13           -4.2665    -4.6418    -1.1035 O.3     
  14 C14           -4.5205    -3.2506    -0.8906 C.3     
  15 C15           -3.2015    -2.4779    -0.9741 C.3     
  16 C16            1.1531     3.5698     0.0103 C.ar    
  17 O17            2.3165     4.2725     0.0029 O.3     
  18 C18            2.2136     5.6977     0.0116 C.3     
  19 F19            1.5332     6.1092     1.1627 F       
  20 F20            3.4956     6.2579     0.0024 F       
  21 F21            1.5114     6.1215    -1.1217 F       
  22 H22           -1.8592    -0.5245     0.9070 H       
  23 H23           -1.8762    -0.5150    -0.8728 H       
  24 H24           -0.4261    -2.5263    -0.8975 H       
  25 H25           -0.4091    -2.5358     0.8824 H       
  26 H26            2.1260     1.6630    -0.0090 H       
  27 H27           -0.0804     5.3206     0.0320 H       
  28 H28           -2.1923     4.0610     0.0399 H       
  29 H29           -2.1665     1.6037     0.0206 H       
  30 H30           -1.5824    -4.5869    -1.2316 H       
  31 H31           -1.3346    -4.8488     0.5123 H       
  32 H32           -3.1869    -6.2606    -0.4046 H       
  33 H33           -3.7584    -5.1242     0.8417 H       
  34 H34           -5.2057    -2.8846    -1.6552 H       
  35 H35           -4.9640    -3.1082     0.0948 H       
  36 H36           -3.3819    -1.4252    -0.7560 H       
  37 H37           -2.7847    -2.5763    -1.9764 H       
@<TRIPOS>BOND
   1    1    2 1
   2    1    7 ar
   3    1   10 ar
   4    2    3 1
   5    2    6 2
   6    3    4 1
   7    3   22 1
   8    3   23 1
   9    4    5 1
  10    4   24 1
  11    4   25 1
  12    5   11 1
  13    5   15 1
  14    7   16 ar
  15    7   26 1
  16    8    9 ar
  17    8   16 ar
  18    8   27 1
  19    9   10 ar
  20    9   28 1
  21   10   29 1
  22   11   12 1
  23   11   30 1
  24   11   31 1
  25   12   13 1
  26   12   32 1
  27   12   33 1
  28   13   14 1
  29   14   15 1
  30   14   34 1
  31   14   35 1
  32   15   36 1
  33   15   37 1
  34   16   17 1
  35   17   18 1
  36   18   19 1
  37   18   20 1
  38   18   21 1

#	End of record

