#	Name: ASD01918165
#	Creating user name:	WinNT
#	Creation time:	15. 06. 2019 20:10

#	Modifying user name:	WinNT
#	Modification time:	15. 06. 2019 20:10

#	Program:	/corina/corina34_cracker 3.40 0067  02.08.2006

@<TRIPOS>MOLECULE
ASD01918165
  41   44    0    0    0
SMALL
NO_CHARGES


@<TRIPOS>ATOM
   1 C1             0.0107     1.3780    -0.2850 C.ar    
   2 C2             0.0304    -0.0009    -0.3028 C.ar    
   3 C3             1.2137    -0.6823    -0.0782 C.ar    
   4 C4             2.3849     0.0130     0.1662 C.ar    
   5 C5             2.3806     1.3920     0.1870 C.ar    
   6 C6             1.1896     2.0870    -0.0394 C.ar    
   7 C7             1.1773     3.5188    -0.0198 C.1     
   8 C8             1.1671     4.6927    -0.0037 C.1     
   9 C9             1.1548     6.1245     0.0159 C.ar    
  10 N10           -0.0463     8.1429    -0.1862 N.ar    
  11 C11           -0.0324     6.8261    -0.2037 C.ar    
  12 C12            2.3344     6.8437     0.2619 C.ar    
  13 C13            2.2717     8.2223     0.2706 C.ar    
  14 C14            1.0511     8.8496     0.0372 C.ar    
  15 N15            0.9819    10.2407     0.0451 N.am    
  16 C16            0.1399    12.4225     0.5603 C.3     
  17 C17           -0.2715    11.0095     0.0671 C.3     
  18 C18            2.0523    11.0540     0.0395 C.2     
  19 C19            1.6073    12.4997     0.0907 C.3     
  20 O20            3.2063    10.6833    -0.0004 O.2     
  21 C21           -0.7612    11.1998    -1.3777 C.3     
  22 C22           -0.7201    13.4001    -0.2533 C.3     
  23 C23           -1.0321    12.6959    -1.5817 C.3     
  24 H24            0.0341    12.5473     1.6380 H       
  25 H25           -1.0216    10.5513     0.7117 H       
  26 H26           -0.9126     1.9086    -0.4649 H       
  27 H27           -0.8799    -0.5503    -0.4922 H       
  28 H28            1.2231    -1.7622    -0.0933 H       
  29 H29            3.3045    -0.5255     0.3413 H       
  30 H30            3.2954     1.9334     0.3782 H       
  31 H31           -0.9476     6.2838    -0.3900 H       
  32 H32            3.2681     6.3310     0.4402 H       
  33 H33            3.1598     8.8080     0.4568 H       
  34 H34            1.6685    12.9538    -0.8983 H       
  35 H35            2.2088    13.0593     0.8071 H       
  36 H36            0.0060    10.8643    -2.0755 H       
  37 H37           -1.6789    10.6330    -1.5348 H       
  38 H38           -1.6448    13.6191     0.2806 H       
  39 H39           -0.1669    14.3208    -0.4385 H       
  40 H40           -0.3864    13.0857    -2.3686 H       
  41 H41           -2.0780    12.8506    -1.8467 H       
@<TRIPOS>BOND
   1    1    2 ar
   2    1    6 ar
   3    1   26 1
   4    2    3 ar
   5    2   27 1
   6    3    4 ar
   7    3   28 1
   8    4    5 ar
   9    4   29 1
  10    5    6 ar
  11    5   30 1
  12    6    7 1
  13    7    8 3
  14    8    9 1
  15    9   12 ar
  16    9   11 ar
  17   10   11 ar
  18   10   14 ar
  19   11   31 1
  20   12   13 ar
  21   12   32 1
  22   13   14 ar
  23   13   33 1
  24   14   15 1
  25   15   18 am
  26   15   17 1
  27   16   17 1
  28   16   19 1
  29   16   22 1
  30   16   24 1
  31   17   21 1
  32   17   25 1
  33   18   19 1
  34   18   20 2
  35   19   34 1
  36   19   35 1
  37   21   23 1
  38   21   36 1
  39   21   37 1
  40   22   23 1
  41   22   38 1
  42   22   39 1
  43   23   40 1
  44   23   41 1

#	End of record

