#	Name: ASD08150061
#	Creating user name:	WinNT
#	Creation time:	15. 06. 2019 21:15

#	Modifying user name:	WinNT
#	Modification time:	15. 06. 2019 21:15

#	Program:	/corina/corina34_cracker 3.40 0067  02.08.2006

@<TRIPOS>MOLECULE
ASD08150061
  73   76    0    0    0
SMALL
NO_CHARGES


@<TRIPOS>ATOM
   1 O1            -1.7059     1.8082    -0.3903 O.3     
   2 C2            -2.0453     0.5269    -0.5703 C.2     
   3 N3            -1.0110    -0.2708    -0.8698 N.am    
   4 C4             0.2175     0.5371    -0.9089 C.3     
   5 C5            -0.2693     1.9614    -0.5788 C.3     
   6 O6            -3.1870     0.1231    -0.4707 O.2     
   7 C7             0.8453     0.4935    -2.3035 C.3     
   8 C8            -1.0909    -1.7125    -1.1177 C.3     
   9 C9            -0.7856    -2.4588     0.1554 C.ar    
  10 C10           -1.7913    -2.6969     1.0739 C.ar    
  11 C11           -1.5141    -3.3809     2.2417 C.ar    
  12 C12           -0.2253    -3.8289     2.4925 C.ar    
  13 C13            0.7820    -3.5887     1.5693 C.ar    
  14 C14            0.4984    -2.9092     0.4004 C.ar    
  15 O15            0.0500    -4.5016     3.6408 O.3     
  16 C16            1.3988    -4.9331     3.8324 C.3     
  17 C17            0.3891     2.4690     0.7056 C.3     
  18 C18           -0.0905     3.8925     0.9963 C.3     
  19 O19            0.5244     4.3667     2.1960 O.3     
  20 Si20           0.0126     5.8425     2.6652 Si      
  21 C21           -1.8098     5.7703     3.0688 C.ar    
  22 C22           -2.2502     6.0963     4.3379 C.ar    
  23 C23           -3.5988     6.0429     4.6366 C.ar    
  24 C24           -4.5072     5.6638     3.6660 C.ar    
  25 C25           -4.0669     5.3387     2.3966 C.ar    
  26 C26           -2.7187     5.3963     2.0967 C.ar    
  27 C27            0.9650     6.3793     4.1799 C.ar    
  28 C28            0.5926     5.9197     5.4293 C.ar    
  29 C29            1.2974     6.3170     6.5502 C.ar    
  30 C30            2.3748     7.1734     6.4217 C.ar    
  31 C31            2.7477     7.6323     5.1721 C.ar    
  32 C32            2.0456     7.2316     4.0508 C.ar    
  33 C33            0.2958     7.0649     1.2881 C.3     
  34 C34           -0.8024     6.9093     0.2343 C.3     
  35 C35            0.2628     8.4863     1.8532 C.3     
  36 C36            1.6596     6.8028     0.6460 C.3     
  37 H37            0.9273     0.1913    -0.1574 H       
  38 H38           -0.0627     2.6376    -1.4083 H       
  39 H39            0.1042     0.7916    -3.0451 H       
  40 H40            1.6932     1.1774    -2.3418 H       
  41 H41            1.1859    -0.5197    -2.5170 H       
  42 H42           -2.0948    -1.9678    -1.4568 H       
  43 H43           -0.3671    -1.9900    -1.8840 H       
  44 H44           -2.7944    -2.3477     0.8783 H       
  45 H45           -2.2999    -3.5663     2.9589 H       
  46 H46            1.7861    -3.9364     1.7623 H       
  47 H47            1.2813    -2.7261    -0.3207 H       
  48 H48            1.6834    -5.6059     3.0234 H       
  49 H49            2.0605    -4.0670     3.8345 H       
  50 H50            1.4812    -5.4556     4.7854 H       
  51 H51            0.1167     1.8172     1.5357 H       
  52 H52            1.4723     2.4684     0.5834 H       
  53 H53            0.1819     4.5444     0.1663 H       
  54 H54           -1.1736     3.8932     1.1185 H       
  55 H55           -1.5405     6.3925     5.0962 H       
  56 H56           -3.9427     6.2969     5.6283 H       
  57 H57           -5.5608     5.6214     3.8995 H       
  58 H58           -4.7766     5.0422     1.6383 H       
  59 H59           -2.3751     5.1458     1.1039 H       
  60 H60           -0.2491     5.2506     5.5298 H       
  61 H61            1.0060     5.9585     7.5264 H       
  62 H62            2.9249     7.4844     7.2975 H       
  63 H63            3.5893     8.3017     5.0717 H       
  64 H64            2.3393     7.5871     3.0742 H       
  65 H65           -1.7781     7.0226     0.7068 H       
  66 H66           -0.6798     7.6730    -0.5337 H       
  67 H67           -0.7317     5.9215    -0.2211 H       
  68 H68            0.9944     8.5752     2.6562 H       
  69 H69            0.5029     9.1972     1.0625 H       
  70 H70           -0.7325     8.6992     2.2432 H       
  71 H71            1.6519     5.8260     0.1625 H       
  72 H72            1.8659     7.5740    -0.0962 H       
  73 H73            2.4326     6.8219     1.4143 H       
@<TRIPOS>BOND
   1    1    2 1
   2    1    5 1
   3    2    3 am
   4    2    6 2
   5    3    4 1
   6    3    8 1
   7    4    5 1
   8    4    7 1
   9    4   37 1
  10    5   17 1
  11    5   38 1
  12    7   39 1
  13    7   40 1
  14    7   41 1
  15    8    9 1
  16    8   42 1
  17    8   43 1
  18    9   10 ar
  19    9   14 ar
  20   10   11 ar
  21   10   44 1
  22   11   12 ar
  23   11   45 1
  24   12   13 ar
  25   12   15 1
  26   13   14 ar
  27   13   46 1
  28   14   47 1
  29   15   16 1
  30   16   48 1
  31   16   49 1
  32   16   50 1
  33   17   18 1
  34   17   51 1
  35   17   52 1
  36   18   19 1
  37   18   53 1
  38   18   54 1
  39   19   20 1
  40   20   21 1
  41   20   27 1
  42   20   33 1
  43   21   22 ar
  44   21   26 ar
  45   22   23 ar
  46   22   55 1
  47   23   24 ar
  48   23   56 1
  49   24   25 ar
  50   24   57 1
  51   25   26 ar
  52   25   58 1
  53   26   59 1
  54   27   28 ar
  55   27   32 ar
  56   28   29 ar
  57   28   60 1
  58   29   30 ar
  59   29   61 1
  60   30   31 ar
  61   30   62 1
  62   31   32 ar
  63   31   63 1
  64   32   64 1
  65   33   34 1
  66   33   36 1
  67   33   35 1
  68   34   65 1
  69   34   66 1
  70   34   67 1
  71   35   68 1
  72   35   69 1
  73   35   70 1
  74   36   71 1
  75   36   72 1
  76   36   73 1

#	End of record

