#	Name: ASD01811293
#	Creating user name:	WinNT
#	Creation time:	15. 06. 2019 19:26

#	Modifying user name:	WinNT
#	Modification time:	15. 06. 2019 19:26

#	Program:	/corina/corina34_cracker 3.40 0067  02.08.2006

@<TRIPOS>MOLECULE
ASD01811293
  61   64    0    0    0
SMALL
NO_CHARGES


@<TRIPOS>ATOM
   1 N1            -0.1127     1.4492    -0.3377 N.pl3   
   2 C2            -0.1135     0.0613    -0.1698 C.ar    
   3 C3            -1.2969    -0.6014     0.1336 C.ar    
   4 C4            -1.3026    -1.9737     0.3011 C.ar    
   5 C5            -0.1336    -2.6946     0.1682 C.ar    
   6 C6             1.0606    -2.0385    -0.1365 C.ar    
   7 C7             1.0655    -0.6550    -0.3116 C.ar    
   8 C8            -2.5779     0.1785     0.2810 C.3     
   9 C9             2.3147    -2.8086    -0.2785 C.2     
  10 O10            3.3730    -2.3141     0.0575 O.2     
  11 N11            2.2845    -4.0590    -0.7806 N.am    
  12 C12            3.5029    -4.8791    -0.8211 C.3     
  13 C13            3.7140    -5.3782    -2.2539 C.3     
  14 C14            2.4525    -6.1030    -2.7285 C.3     
  15 C15            1.2712    -5.1300    -2.7250 C.3     
  16 C16            1.0312    -4.6301    -1.2923 C.3     
  17 C17            2.6688    -6.6250    -4.1255 C.ar    
  18 C18            2.5782    -7.9829    -4.3750 C.ar    
  19 C19            2.7751    -8.4676    -5.6514 C.ar    
  20 C20            3.0660    -7.5842    -6.6929 C.ar    
  21 C21            3.1554    -6.2150    -6.4342 C.ar    
  22 C22            2.9515    -5.7436    -5.1539 C.ar    
  23 C23            3.2720    -8.0803    -8.0204 C.1     
  24 N24            3.4355    -8.4738    -9.0734 N.1     
  25 C25            1.0864     2.1295    -0.4786 C.2     
  26 N26            2.2839     1.6055    -0.3647 N.2     
  27 C27            3.2074     2.5606    -0.5644 C.2     
  28 C28            2.5712     3.7186    -0.8109 C.2     
  29 N29            1.2218     3.4528    -0.7642 N.pl3   
  30 C30            3.2134     5.0528    -1.0914 C.3     
  31 C31            4.4979     5.1832    -0.2706 C.3     
  32 C32            3.5474     5.1549    -2.5810 C.3     
  33 H33           -0.9517     1.9355    -0.3596 H       
  34 H34           -2.2252    -2.4831     0.5371 H       
  35 H35           -0.1423    -3.7665     0.3001 H       
  36 H36            1.9854    -0.1425    -0.5517 H       
  37 H37           -3.0760     0.2453    -0.6862 H       
  38 H38           -3.2314    -0.3271     0.9920 H       
  39 H39           -2.3530     1.1814     0.6439 H       
  40 H40            4.3585    -4.2777    -0.5138 H       
  41 H41            3.3925    -5.7309    -0.1500 H       
  42 H42            3.9144    -4.5301    -2.9087 H       
  43 H43            4.5597    -6.0655    -2.2789 H       
  44 H44            2.2387    -6.9361    -2.0588 H       
  45 H45            1.4946    -4.2843    -3.3754 H       
  46 H46            0.3782    -5.6406    -3.0852 H       
  47 H47            0.7234    -5.4621    -0.6589 H       
  48 H48            0.2555    -3.8645    -1.2961 H       
  49 H49            2.3532    -8.6651    -3.5684 H       
  50 H50            2.7048    -9.5278    -5.8446 H       
  51 H51            3.3801    -5.5263    -7.2352 H       
  52 H52            3.0164    -4.6844    -4.9531 H       
  53 H53            4.2780     2.4217    -0.5323 H       
  54 H54            0.5032     4.0895    -0.9026 H       
  55 H55            2.5247     5.8522    -0.8179 H       
  56 H56            5.1866     4.3838    -0.5441 H       
  57 H57            4.9624     6.1481    -0.4734 H       
  58 H58            4.2599     5.1104     0.7907 H       
  59 H59            4.0119     6.1199    -2.7839 H       
  60 H60            4.2361     4.3555    -2.8545 H       
  61 H61            2.6323     5.0620    -3.1658 H       
@<TRIPOS>BOND
   1    1    2 1
   2    1   25 1
   3    1   33 1
   4    2    3 ar
   5    2    7 ar
   6    3    4 ar
   7    3    8 1
   8    4    5 ar
   9    4   34 1
  10    5    6 ar
  11    5   35 1
  12    6    7 ar
  13    6    9 1
  14    7   36 1
  15    8   37 1
  16    8   38 1
  17    8   39 1
  18    9   10 2
  19    9   11 am
  20   11   12 1
  21   11   16 1
  22   12   13 1
  23   12   40 1
  24   12   41 1
  25   13   14 1
  26   13   42 1
  27   13   43 1
  28   14   15 1
  29   14   17 1
  30   14   44 1
  31   15   16 1
  32   15   45 1
  33   15   46 1
  34   16   47 1
  35   16   48 1
  36   17   18 ar
  37   17   22 ar
  38   18   19 ar
  39   18   49 1
  40   19   20 ar
  41   19   50 1
  42   20   21 ar
  43   20   23 1
  44   21   22 ar
  45   21   51 1
  46   22   52 1
  47   23   24 3
  48   25   26 2
  49   25   29 1
  50   26   27 1
  51   27   28 2
  52   27   53 1
  53   28   29 1
  54   28   30 1
  55   29   54 1
  56   30   31 1
  57   30   32 1
  58   30   55 1
  59   31   56 1
  60   31   57 1
  61   31   58 1
  62   32   59 1
  63   32   60 1
  64   32   61 1

#	End of record

