#	Name: ASD01231312
#	Creating user name:	WinNT
#	Creation time:	15. 06. 2019 19:15

#	Modifying user name:	WinNT
#	Modification time:	15. 06. 2019 19:15

#	Program:	/corina/corina34_cracker 3.40 0067  02.08.2006

@<TRIPOS>MOLECULE
ASD01231312
  55   57    0    0    0
SMALL
NO_CHARGES


@<TRIPOS>ATOM
   1 C1            -0.0180     1.4730     0.0101 C.2     
   2 C2             0.0021    -0.0041     0.0020 C.ar    
   3 C3             1.2190    -0.6889    -0.0133 C.ar    
   4 C4             1.2304    -2.0681    -0.0203 C.ar    
   5 C5             0.0396    -2.7731    -0.0127 C.ar    
   6 C6            -1.1695    -2.1010     0.0020 C.ar    
   7 C7            -1.1954    -0.7216     0.0154 C.ar    
   8 O8             1.0256     2.0946     0.0035 O.2     
   9 O9            -1.1936     2.1307     0.0193 O.3     
  10 C10           -2.4611    -2.8773     0.0092 C.3     
  11 F11           -2.8490    -3.1250     1.3303 F       
  12 F12           -3.4551    -2.1347    -0.6372 F       
  13 F13           -2.2784    -4.0928    -0.6589 F       
  14 C14            2.5427    -2.8089    -0.0368 C.3     
  15 C15            4.1344    -4.0189     5.3765 C.3     
  16 C16            3.0942    -5.1226     5.6631 C.3     
  17 C17            2.7507    -5.6299     4.2465 C.3     
  18 C18            3.0256    -4.4581     3.3286 C.ar    
  19 C19            2.6131    -4.2207     2.0280 C.ar    
  20 C20            2.9939    -3.0630     1.3784 C.ar    
  21 C21            3.7892    -2.1372     2.0279 C.ar    
  22 C22            4.2012    -2.3719     3.3249 C.ar    
  23 C23            3.8206    -3.5325     3.9779 C.ar    
  24 S24            3.4772    -6.1974     8.1152 S.o2    
  25 O25            4.1903    -7.3453     8.5545 O.2     
  26 O26            3.8686    -4.8926     8.5196 O.2     
  27 N27            3.6810    -6.1940     6.4719 N.am    
  28 C28            1.6932    -6.4280     8.3496 C.3     
  29 C29            1.2630    -7.7535     7.7179 C.3     
  30 C30            1.3738    -6.4487     9.8457 C.3     
  31 C31           -1.1373     3.5816     0.0269 C.3     
  32 H32            2.1490    -0.1399    -0.0199 H       
  33 H33            0.0543    -3.8530    -0.0186 H       
  34 H34           -2.1399    -0.1982     0.0318 H       
  35 H35            2.4165    -3.7600    -0.5542 H       
  36 H36            3.2916    -2.2100    -0.5550 H       
  37 H37            4.0286    -3.2043     6.0929 H       
  38 H38            5.1430    -4.4302     5.4166 H       
  39 H39            2.2122    -4.7067     6.1502 H       
  40 H40            3.3871    -6.4745     3.9825 H       
  41 H41            1.7001    -5.9152     4.1913 H       
  42 H42            1.9924    -4.9438     1.5197 H       
  43 H43            4.0882    -1.2315     1.5212 H       
  44 H44            4.8224    -1.6482     3.8316 H       
  45 H45            4.1890    -6.9014     6.0447 H       
  46 H46            1.1553    -5.6076     7.8745 H       
  47 H47            1.8010    -8.5739     8.1930 H       
  48 H48            0.1911    -7.8921     7.8587 H       
  49 H49            1.4906    -7.7388     6.6520 H       
  50 H50            1.6803    -5.5044    10.2957 H       
  51 H51            0.3019    -6.5873     9.9865 H       
  52 H52            1.9117    -7.2691    10.3208 H       
  53 H53           -0.6055     3.9199     0.9162 H       
  54 H54           -0.6140     3.9295    -0.8637 H       
  55 H55           -2.1501     3.9844     0.0339 H       
@<TRIPOS>BOND
   1    1    2 1
   2    1    8 2
   3    1    9 1
   4    2    3 ar
   5    2    7 ar
   6    3    4 ar
   7    3   32 1
   8    4    5 ar
   9    4   14 1
  10    5    6 ar
  11    5   33 1
  12    6    7 ar
  13    6   10 1
  14    7   34 1
  15    9   31 1
  16   10   11 1
  17   10   12 1
  18   10   13 1
  19   14   20 1
  20   14   35 1
  21   14   36 1
  22   15   16 1
  23   15   23 1
  24   15   37 1
  25   15   38 1
  26   16   17 1
  27   16   27 1
  28   16   39 1
  29   17   18 1
  30   17   40 1
  31   17   41 1
  32   18   19 ar
  33   18   23 ar
  34   19   20 ar
  35   19   42 1
  36   20   21 ar
  37   21   22 ar
  38   21   43 1
  39   22   23 ar
  40   22   44 1
  41   24   25 2
  42   24   26 2
  43   24   27 am
  44   24   28 1
  45   27   45 1
  46   28   29 1
  47   28   30 1
  48   28   46 1
  49   29   47 1
  50   29   48 1
  51   29   49 1
  52   30   50 1
  53   30   51 1
  54   30   52 1
  55   31   53 1
  56   31   54 1
  57   31   55 1

#	End of record

