#	Name: ASD01238023
#	Creating user name:	WinNT
#	Creation time:	15. 06. 2019 19:15

#	Modifying user name:	WinNT
#	Modification time:	15. 06. 2019 19:15

#	Program:	/corina/corina34_cracker 3.40 0067  02.08.2006

@<TRIPOS>MOLECULE
ASD01238023
  26   27    0    0    0
SMALL
NO_CHARGES


@<TRIPOS>ATOM
   1 C1            -0.0099     1.5068     0.2430 C.3     
   2 C2             0.0021    -0.0041     0.0020 C.3     
   3 N3            -1.3761    -0.5125     0.0124 N.3     
   4 C4            -2.1050    -0.0692    -1.1682 C.3     
   5 N5            -3.4175    -0.7479    -1.2168 N.am    
   6 S6            -4.4373    -0.3810     0.0555 S.o2    
   7 O7            -4.9632     0.9149    -0.1964 O.2     
   8 O8            -5.2454    -1.5277     0.2819 O.2     
   9 C9            -3.3475    -0.2340     1.4422 C.ar    
  10 C10           -1.9764    -0.2982     1.2466 C.ar    
  11 C11           -1.1379    -0.1540     2.3567 C.ar    
  12 C12           -1.6663     0.0297     3.6152 C.ar    
  13 C13           -3.0384     0.0755     3.7975 C.ar    
  14 C14           -3.8771    -0.0549     2.7036 C.ar    
  15 F15           -3.5549     0.2463     5.0341 F       
  16 H16            1.0127     1.8841     0.2352 H       
  17 H17           -0.5836     1.9958    -0.5444 H       
  18 H18           -0.4674     1.7169     1.2098 H       
  19 H19            0.4596    -0.2142    -0.9648 H       
  20 H20            0.5757    -0.4930     0.7894 H       
  21 H21           -2.2548     1.0093    -1.1194 H       
  22 H22           -1.5338    -0.3174    -2.0627 H       
  23 H23           -3.6668    -1.3567    -1.9296 H       
  24 H24           -0.0663    -0.1873     2.2259 H       
  25 H25           -1.0075     0.1382     4.4641 H       
  26 H26           -4.9480    -0.0167     2.8381 H       
@<TRIPOS>BOND
   1    1    2 1
   2    1   16 1
   3    1   17 1
   4    1   18 1
   5    2    3 1
   6    2   19 1
   7    2   20 1
   8    3    4 1
   9    3   10 1
  10    4    5 1
  11    4   21 1
  12    4   22 1
  13    5    6 am
  14    5   23 1
  15    6    7 2
  16    6    8 2
  17    6    9 1
  18    9   10 ar
  19    9   14 ar
  20   10   11 ar
  21   11   12 ar
  22   11   24 1
  23   12   13 ar
  24   12   25 1
  25   13   14 ar
  26   13   15 1
  27   14   26 1

#	End of record

