#	Name: ASD01812942
#	Creating user name:	WinNT
#	Creation time:	15. 06. 2019 19:29

#	Modifying user name:	WinNT
#	Modification time:	15. 06. 2019 19:29

#	Program:	/corina/corina34_cracker 3.40 0067  02.08.2006

@<TRIPOS>MOLECULE
ASD01812942
  49   53    0    0    0
SMALL
NO_CHARGES


@<TRIPOS>ATOM
   1 C1            -0.0166     1.3763     0.0096 C.ar    
   2 C2             0.0021    -0.0041     0.0020 C.ar    
   3 C3             1.2108    -0.6876    -0.0127 C.ar    
   4 C4             2.3969     0.0096    -0.0203 C.ar    
   5 C5             2.3946     1.4079    -0.0132 C.ar    
   6 C6             1.1716     2.0921     0.0021 C.ar    
   7 C7             3.8447    -0.4134    -0.0364 C.3     
   8 N8             4.6328     0.8244    -0.0378 N.am    
   9 C9             3.7915     1.8726    -0.0244 C.2     
  10 C10            6.0956     0.9045    -0.0511 C.3     
  11 C11            6.5839     0.9388    -1.4764 C.ar    
  12 O12            1.1498     3.4487     0.0091 O.3     
  13 O13            4.1353     3.0389    -0.0222 O.2     
  14 C14            6.7420     2.1511    -2.1226 C.ar    
  15 C15            7.1893     2.1858    -3.4288 C.ar    
  16 C16            7.4803     1.0019    -4.0931 C.ar    
  17 C17            7.3205    -0.2137    -3.4417 C.ar    
  18 C18            6.8783    -0.2417    -2.1335 C.ar    
  19 N19            7.9340     1.0338    -5.4191 N.pl3   
  20 N20            8.1446     2.1837    -6.1910 N.2     
  21 C21            8.2515    -0.0397    -6.1777 C.2     
  22 C22            8.6440     0.4148    -7.3904 C.2     
  23 C23            8.5732     1.8120    -7.3704 C.2     
  24 C24           -0.0587     4.0666     0.0235 C.ar    
  25 C25           -0.6743     4.3810     1.2427 C.ar    
  26 C26           -1.9182     5.0170     1.2448 C.ar    
  27 C27           -2.5324     5.3312     0.0514 C.ar    
  28 C28           -1.9225     5.0192    -1.1521 C.ar    
  29 C29           -0.6883     4.3952    -1.1694 C.ar    
  30 C30           -0.0319     4.0518     2.4795 C.1     
  31 F31           -0.0977     4.0999    -2.3481 F       
  32 N32            0.4776     3.7906     3.4606 N.1     
  33 F33            1.2221    -2.0386    -0.0192 F       
  34 H34           -0.9605     1.9012     0.0169 H       
  35 H35           -0.9271    -0.5546     0.0079 H       
  36 H36            4.0730    -1.0020     0.8521 H       
  37 H37            4.0557    -0.9930    -0.9350 H       
  38 H38            6.4146     1.8105     0.4642 H       
  39 H39            6.5118     0.0332     0.4547 H       
  40 H40            6.5151     3.0717    -1.6054 H       
  41 H41            7.3122     3.1329    -3.9331 H       
  42 H42            7.5458    -1.1363    -3.9560 H       
  43 H43            6.7583    -1.1867    -1.6247 H       
  44 H44            8.2013    -1.0739    -5.8707 H       
  45 H45            8.9626    -0.1934    -8.2241 H       
  46 H46            8.8246     2.4703    -8.1889 H       
  47 H47           -2.3985     5.2618     2.1807 H       
  48 H48           -3.4940     5.8228     0.0550 H       
  49 H49           -2.4113     5.2685    -2.0823 H       
@<TRIPOS>BOND
   1    1    2 ar
   2    1    6 ar
   3    1   34 1
   4    2    3 ar
   5    2   35 1
   6    3    4 ar
   7    3   33 1
   8    4    7 1
   9    4    5 ar
  10    5    6 ar
  11    5    9 1
  12    6   12 1
  13    7    8 1
  14    7   36 1
  15    7   37 1
  16    8    9 am
  17    8   10 1
  18    9   13 2
  19   10   11 1
  20   10   38 1
  21   10   39 1
  22   11   14 ar
  23   11   18 ar
  24   12   24 1
  25   14   15 ar
  26   14   40 1
  27   15   16 ar
  28   15   41 1
  29   16   17 ar
  30   16   19 1
  31   17   18 ar
  32   17   42 1
  33   18   43 1
  34   19   21 1
  35   19   20 1
  36   20   23 2
  37   21   22 2
  38   21   44 1
  39   22   23 1
  40   22   45 1
  41   23   46 1
  42   24   25 ar
  43   24   29 ar
  44   25   26 ar
  45   25   30 1
  46   26   27 ar
  47   26   47 1
  48   27   28 ar
  49   27   48 1
  50   28   29 ar
  51   28   49 1
  52   29   31 1
  53   30   32 3

#	End of record

