#	Name: ASD05170069
#	Creating user name:	WinNT
#	Creation time:	15. 06. 2019 20:57

#	Modifying user name:	WinNT
#	Modification time:	15. 06. 2019 20:57

#	Program:	/corina/corina34_cracker 3.40 0067  02.08.2006

@<TRIPOS>MOLECULE
ASD05170069
  46   49    0    0    0
SMALL
NO_CHARGES


@<TRIPOS>ATOM
   1 C1            -0.2245     1.4605    -1.1228 C.ar    
   2 C2            -0.2360     0.0853    -1.2763 C.ar    
   3 C3             0.9603    -0.6060    -1.1406 C.ar    
   4 C4             2.1164     0.0936    -0.8587 C.ar    
   5 N5             2.0957     1.4055    -0.7174 N.ar    
   6 C6             0.9763     2.0990    -0.8397 C.ar    
   7 O7             1.0009     3.4469    -0.6869 O.3     
   8 C8             2.2664     4.0440    -0.3970 C.3     
   9 C9             2.0990     5.5356    -0.2623 C.2     
  10 C10            0.8974     6.2452    -0.3913 C.2     
  11 N11            3.0521     6.3987     0.0020 N.2     
  12 C12            1.2352     7.5536    -0.1921 C.2     
  13 C13            0.4282     8.7832    -0.1928 C.2     
  14 N14            2.5892     7.5859     0.0598 N.pl3   
  15 C15            3.2768     8.8488     0.3547 C.3     
  16 C16            2.5613     9.9918    -0.3639 C.3     
  17 N17            1.1133     9.9522    -0.1732 N.am    
  18 O18           -0.7877     8.7524    -0.2105 O.2     
  19 C19            0.4189    11.1484     0.0397 C.ar    
  20 C20           -0.8537    12.5823     1.4803 C.ar    
  21 C21           -0.1693    11.4010     1.2721 C.ar    
  22 C22            0.3219    12.0869    -0.9792 C.ar    
  23 C23           -0.3635    13.2670    -0.7667 C.ar    
  24 C24           -0.9534    13.5148     0.4614 C.ar    
  25 F25           -1.6234    14.6698     0.6671 F       
  26 C26            3.2562     9.1014     1.8636 C.3     
  27 C27           -1.5178    -0.6453    -1.5833 C.3     
  28 F28           -1.6862    -0.7291    -2.9696 F       
  29 F29           -1.4613    -1.9339    -1.0416 F       
  30 F30           -2.5958     0.0490    -1.0237 F       
  31 H31           -1.1362     2.0303    -1.2261 H       
  32 H32            0.9860    -1.6798    -1.2539 H       
  33 H33            3.0496    -0.4395    -0.7521 H       
  34 H34            2.6553     3.6363     0.5361 H       
  35 H35            2.9639     3.8282    -1.2064 H       
  36 H36           -0.0830     5.8444    -0.6024 H       
  37 H37            4.3088     8.7907     0.0088 H       
  38 H38            2.9408    10.9399     0.0170 H       
  39 H39            2.7799     9.9296    -1.4299 H       
  40 H40           -1.3116    12.7791     2.4385 H       
  41 H41           -0.0918    10.6741     2.0671 H       
  42 H42            0.7823    11.8944    -1.9369 H       
  43 H43           -0.4392    13.9972    -1.5589 H       
  44 H44            3.7632     8.2838     2.3758 H       
  45 H45            3.7669    10.0393     2.0819 H       
  46 H46            2.2237     9.1612     2.2078 H       
@<TRIPOS>BOND
   1    1    2 ar
   2    1    6 ar
   3    1   31 1
   4    2    3 ar
   5    2   27 1
   6    3    4 ar
   7    3   32 1
   8    4    5 ar
   9    4   33 1
  10    5    6 ar
  11    6    7 1
  12    7    8 1
  13    8    9 1
  14    8   34 1
  15    8   35 1
  16    9   11 2
  17    9   10 1
  18   10   12 2
  19   10   36 1
  20   11   14 1
  21   12   14 1
  22   12   13 1
  23   13   17 am
  24   13   18 2
  25   14   15 1
  26   15   16 1
  27   15   26 1
  28   15   37 1
  29   16   17 1
  30   16   38 1
  31   16   39 1
  32   17   19 1
  33   19   22 ar
  34   19   21 ar
  35   20   21 ar
  36   20   24 ar
  37   20   40 1
  38   21   41 1
  39   22   23 ar
  40   22   42 1
  41   23   24 ar
  42   23   43 1
  43   24   25 1
  44   26   44 1
  45   26   45 1
  46   26   46 1
  47   27   28 1
  48   27   29 1
  49   27   30 1

#	End of record

