#	Name: ASD09740019
#	Creating user name:	WinNT
#	Creation time:	15. 06. 2019 21:22

#	Modifying user name:	WinNT
#	Modification time:	15. 06. 2019 21:22

#	Program:	/corina/corina34_cracker 3.40 0067  02.08.2006

@<TRIPOS>MOLECULE
ASD09740019
  35   37    0    0    0
SMALL
NO_CHARGES


@<TRIPOS>ATOM
   1 N1            -0.0144     1.2087     0.0087 N.2     
   2 O2             0.0021    -0.0041     0.0020 O.3     
   3 C3             1.2069     1.6747    -0.0005 C.2     
   4 N4             2.0404     0.6103    -0.0141 N.2     
   5 C5             1.2640    -0.4445    -0.0124 C.2     
   6 C6             1.7097    -1.8841    -0.0239 C.3     
   7 C7             1.6044     3.1054     0.0030 C.ar    
   8 C8             0.6415     4.1175     0.0177 C.ar    
   9 C9             1.0544     5.4347     0.0209 C.ar    
  10 N10            2.3369     5.7421     0.0103 N.ar    
  11 C11            3.2771     4.8173    -0.0037 C.ar    
  12 C12            2.9514     3.4758    -0.0025 C.ar    
  13 C13            1.1910    -2.5804     1.2078 C.ar    
  14 C14            2.0761    -3.1456     2.1067 C.ar    
  15 C15            1.6004    -3.7843     3.2365 C.ar    
  16 C16            0.2395    -3.8575     3.4677 C.ar    
  17 C17           -0.6457    -3.2915     2.5693 C.ar    
  18 C18           -0.1697    -2.6490     1.4417 C.ar    
  19 C19            1.1600    -2.5781    -1.2717 C.3     
  20 C20            1.7835    -1.9514    -2.5204 C.3     
  21 H21            2.7988    -1.9272    -0.0342 H       
  22 H22           -0.4104     3.8730     0.0260 H       
  23 H23            0.3174     6.2241     0.0318 H       
  24 H24            4.3157     5.1134    -0.0124 H       
  25 H25            3.7264     2.7238    -0.0136 H       
  26 H26            3.1394    -3.0884     1.9261 H       
  27 H27            2.2919    -4.2265     3.9384 H       
  28 H28           -0.1323    -4.3572     4.3501 H       
  29 H29           -1.7089    -3.3490     2.7497 H       
  30 H30           -0.8612    -2.2068     0.7397 H       
  31 H31            1.4069    -3.6392    -1.2358 H       
  32 H32            0.0772    -2.4581    -1.3070 H       
  33 H33            1.5366    -0.8903    -2.5563 H       
  34 H34            2.8663    -2.0715    -2.4851 H       
  35 H35            1.3919    -2.4458    -3.4094 H       
@<TRIPOS>BOND
   1    1    2 1
   2    1    3 2
   3    2    5 1
   4    3    4 1
   5    3    7 1
   6    4    5 2
   7    5    6 1
   8    6   13 1
   9    6   19 1
  10    6   21 1
  11    7    8 ar
  12    7   12 ar
  13    8    9 ar
  14    8   22 1
  15    9   10 ar
  16    9   23 1
  17   10   11 ar
  18   11   12 ar
  19   11   24 1
  20   12   25 1
  21   13   14 ar
  22   13   18 ar
  23   14   15 ar
  24   14   26 1
  25   15   16 ar
  26   15   27 1
  27   16   17 ar
  28   16   28 1
  29   17   18 ar
  30   17   29 1
  31   18   30 1
  32   19   20 1
  33   19   31 1
  34   19   32 1
  35   20   33 1
  36   20   34 1
  37   20   35 1

#	End of record

