#	Name: ASD03092370
#	Creating user name:	WinNT
#	Creation time:	15. 06. 2019 20:32

#	Modifying user name:	WinNT
#	Modification time:	15. 06. 2019 20:32

#	Program:	/corina/corina34_cracker 3.40 0067  02.08.2006

@<TRIPOS>MOLECULE
ASD03092370
  55   57    0    0    0
SMALL
NO_CHARGES


@<TRIPOS>ATOM
   1 C1             0.3371     2.0142     0.1473 C.2     
   2 C2             0.5530     0.5250     0.2295 C.3     
   3 C3            -0.1048    -0.1529    -0.9741 C.3     
   4 O4             1.2896     2.7629     0.0914 O.2     
   5 N5            -0.9146     2.5138     0.1303 N.am    
   6 C6             2.0535     0.2263     0.2261 C.3     
   7 C7            -1.1245     3.9614     0.0503 C.3     
   8 S8            -4.9831     4.7581    -0.6387 S.3     
   9 C9            -4.5796     4.6091     1.0158 C.2     
  10 N10           -3.3133     4.3512     1.1494 N.2     
  11 C11           -2.6025     4.2553     0.0469 C.2     
  12 C12           -3.3088     4.4431    -1.0876 C.2     
  13 N13           -5.4734     4.7442     2.0625 N.3     
  14 C14           -6.8264     5.0343     1.5658 C.3     
  15 C15           -7.7688     5.2348     2.7556 C.3     
  16 O16           -7.7348     4.0707     3.5857 O.3     
  17 C17           -6.4323     3.7592     4.0874 C.3     
  18 C18           -5.4763     3.5438     2.9111 C.3     
  19 C19           -9.1943     5.4576     2.2463 C.3     
  20 C20           -2.5480     5.3151    -4.6604 C.ar    
  21 C21           -3.0699     5.4020    -3.3880 C.ar    
  22 C22           -2.7732     4.3929    -2.4620 C.ar    
  23 C23           -1.9534     3.3351    -2.8774 C.ar    
  24 C24           -1.4751     3.3289    -4.1698 C.ar    
  25 N25           -1.7794     4.3004    -5.0103 N.ar    
  26 C26           -0.5920     2.1977    -4.6298 C.3     
  27 C27           -2.8640     6.3901    -5.6682 C.3     
  28 H28            0.1087     0.1437     1.1489 H       
  29 H29            0.0514    -1.2300    -0.9146 H       
  30 H30           -1.1738     0.0600    -0.9716 H       
  31 H31            0.3395     0.2284    -1.8935 H       
  32 H32           -1.6764     1.9147     0.1709 H       
  33 H33            2.5221     0.7092     1.0836 H       
  34 H34            2.2097    -0.8508     0.2856 H       
  35 H35            2.4978     0.6076    -0.6933 H       
  36 H36           -0.6601     4.4439     0.9103 H       
  37 H37           -0.6759     4.3435    -0.8667 H       
  38 H38           -6.8056     5.9410     0.9612 H       
  39 H39           -7.1782     4.1997     0.9594 H       
  40 H40           -7.4478     6.1024     3.3320 H       
  41 H41           -6.0724     4.5839     4.7026 H       
  42 H42           -6.4812     2.8508     4.6878 H       
  43 H43           -5.8066     2.6853     2.3262 H       
  44 H44           -4.4699     3.3624     3.2885 H       
  45 H45           -9.5148     4.5886     1.6717 H       
  46 H46           -9.8647     5.6003     3.0938 H       
  47 H47           -9.2188     6.3427     1.6106 H       
  48 H48           -3.6976     6.2353    -3.1086 H       
  49 H49           -1.7001     2.5372    -2.1952 H       
  50 H50           -1.2090     1.4010    -5.0454 H       
  51 H51            0.0954     2.5609    -5.3938 H       
  52 H52           -0.0236     1.8129    -3.7830 H       
  53 H53           -2.1123     7.1771    -5.6076 H       
  54 H54           -2.8608     5.9610    -6.6701 H       
  55 H55           -3.8473     6.8096    -5.4556 H       
@<TRIPOS>BOND
   1    1    2 1
   2    1    4 2
   3    1    5 am
   4    2    3 1
   5    2    6 1
   6    2   28 1
   7    3   29 1
   8    3   30 1
   9    3   31 1
  10    5    7 1
  11    5   32 1
  12    6   33 1
  13    6   34 1
  14    6   35 1
  15    7   11 1
  16    7   36 1
  17    7   37 1
  18    8    9 1
  19    8   12 1
  20    9   10 2
  21    9   13 1
  22   10   11 1
  23   11   12 2
  24   12   22 1
  25   13   14 1
  26   13   18 1
  27   14   15 1
  28   14   38 1
  29   14   39 1
  30   15   16 1
  31   15   19 1
  32   15   40 1
  33   16   17 1
  34   17   18 1
  35   17   41 1
  36   17   42 1
  37   18   43 1
  38   18   44 1
  39   19   45 1
  40   19   46 1
  41   19   47 1
  42   20   21 ar
  43   20   25 ar
  44   20   27 1
  45   21   22 ar
  46   21   48 1
  47   22   23 ar
  48   23   24 ar
  49   23   49 1
  50   24   25 ar
  51   24   26 1
  52   26   50 1
  53   26   51 1
  54   26   52 1
  55   27   53 1
  56   27   54 1
  57   27   55 1

#	End of record

