#	Name: ASD04230005
#	Creating user name:	WinNT
#	Creation time:	15. 06. 2019 20:48

#	Modifying user name:	WinNT
#	Modification time:	15. 06. 2019 20:48

#	Program:	/corina/corina34_cracker 3.40 0067  02.08.2006

@<TRIPOS>MOLECULE
ASD04230005
  46   50    0    0    0
SMALL
NO_CHARGES


@<TRIPOS>ATOM
   1 C1            -1.6678     4.6725    -1.6687 C.ar    
   2 C2            -2.7011     5.3498    -2.3126 C.ar    
   3 C3            -3.9397     4.7883    -2.4142 C.ar    
   4 C4            -4.1836     3.5228    -1.8582 C.ar    
   5 C5            -3.1346     2.8185    -1.2343 C.ar    
   6 C6            -1.8794     3.4059    -1.1375 C.ar    
   7 C7            -5.4756     2.9467    -1.9243 C.2     
   8 C8            -5.7121     1.7902    -1.1891 C.2     
   9 C9            -4.6017     1.2720    -0.3709 C.2     
  10 O10           -3.3402     1.5667    -0.7577 O.3     
  11 C11           -7.0175     1.1123    -1.2264 C.2     
  12 N12           -7.2164    -0.0071    -0.5027 N.am    
  13 O13           -7.9172     1.5623    -1.9103 O.2     
  14 C14           -8.4874    -0.5883    -0.4486 C.ar    
  15 C15           -8.6176    -1.9700    -0.3815 C.ar    
  16 C16           -9.8721    -2.5477    -0.3274 C.ar    
  17 C17          -11.0025    -1.7555    -0.3402 C.ar    
  18 C18          -10.8813    -0.3684    -0.4073 C.ar    
  19 C19           -9.6183     0.2148    -0.4561 C.ar    
  20 C20          -12.0957     0.4846    -0.4216 C.2     
  21 O21           -4.8133     0.6003     0.6215 O.2     
  22 O22           -0.8638     2.7481    -0.5149 O.3     
  23 O23           -0.4441     5.2516    -1.5645 O.3     
  24 C24          -13.3784     0.0490    -0.2781 C.2     
  25 N25          -14.1864     1.1489    -0.3509 N.pl3   
  26 C26          -13.3740     2.2378    -0.5382 C.2     
  27 N27          -12.1179     1.8183    -0.5724 N.2     
  28 C28          -15.5408     1.3024    -0.2722 C.2     
  29 C29          -16.1014     2.5254    -0.3776 C.2     
  30 C30          -15.2960     3.6601    -0.5699 C.2     
  31 C31          -13.9453     3.5222    -0.6497 C.2     
  32 H32           -2.5198     6.3274    -2.7343 H       
  33 H33           -4.7326     5.3173    -2.9219 H       
  34 H34           -6.2535     3.3920    -2.5268 H       
  35 H35           -6.4780    -0.4098    -0.0194 H       
  36 H36           -7.7363    -2.5942    -0.3719 H       
  37 H37           -9.9682    -3.6222    -0.2753 H       
  38 H38          -11.9810    -2.2105    -0.2985 H       
  39 H39           -9.5194     1.2890    -0.5082 H       
  40 H40           -0.3382     2.1889    -1.1034 H       
  41 H41           -0.3282     5.7852    -0.7664 H       
  42 H42          -13.6968    -0.9729    -0.1344 H       
  43 H43          -16.1695     0.4368    -0.1245 H       
  44 H44          -17.1742     2.6321    -0.3142 H       
  45 H45          -15.7473     4.6377    -0.6543 H       
  46 H46          -13.3164     4.3878    -0.7971 H       
@<TRIPOS>BOND
   1    1    2 ar
   2    1   23 1
   3    1    6 ar
   4    2    3 ar
   5    2   32 1
   6    3    4 ar
   7    3   33 1
   8    4    5 ar
   9    4    7 1
  10    5    6 ar
  11    5   10 1
  12    6   22 1
  13    7    8 2
  14    7   34 1
  15    8    9 1
  16    8   11 1
  17    9   10 1
  18    9   21 2
  19   11   12 am
  20   11   13 2
  21   12   14 1
  22   12   35 1
  23   14   15 ar
  24   14   19 ar
  25   15   16 ar
  26   15   36 1
  27   16   17 ar
  28   16   37 1
  29   17   18 ar
  30   17   38 1
  31   18   19 ar
  32   18   20 1
  33   19   39 1
  34   20   24 2
  35   20   27 1
  36   22   40 1
  37   23   41 1
  38   24   25 1
  39   24   42 1
  40   25   26 1
  41   25   28 1
  42   26   27 2
  43   26   31 1
  44   28   29 2
  45   28   43 1
  46   29   30 1
  47   29   44 1
  48   30   31 2
  49   30   45 1
  50   31   46 1

#	End of record

