#	Name: ASD08070098
#	Creating user name:	WinNT
#	Creation time:	15. 06. 2019 21:14

#	Modifying user name:	WinNT
#	Modification time:	15. 06. 2019 21:14

#	Program:	/corina/corina34_cracker 3.40 0067  02.08.2006

@<TRIPOS>MOLECULE
ASD08070098
  47   47    0    0    0
SMALL
NO_CHARGES


@<TRIPOS>ATOM
   1 C1             0.1637     1.2975     0.4032 C.ar    
   2 C2             0.1471    -0.0781     0.3426 C.ar    
   3 C3             1.3627     1.9867     0.2641 C.ar    
   4 C4             2.5491     1.2912     0.0628 C.ar    
   5 C5             2.5409    -0.0844     0.0005 C.ar    
   6 C6             1.3378    -0.7811     0.1408 C.ar    
   7 C7             1.3245    -2.2556     0.0751 C.2     
   8 O8             2.3614    -2.8656    -0.1013 O.2     
   9 C9             0.0871    -4.7140    -1.4560 C.3     
  10 C10            0.1319    -4.3800     0.0364 C.3     
  11 N11            0.1631    -2.9257     0.2107 N.am    
  12 C12           -1.0919    -4.9409     0.7137 C.2     
  13 O13           -1.8593    -4.2018     1.2835 O.2     
  14 O14            1.3749     3.3424     0.3246 O.3     
  15 C15            3.8462     2.0435    -0.0878 C.3     
  16 C16            0.2314    -6.2254    -1.6449 C.3     
  17 O17           -1.3294    -6.2617     0.6840 O.3     
  18 C18            1.5600     3.9328     1.6127 C.3     
  19 C19           -1.1207     2.0569     0.6145 C.3     
  20 C20            0.0618    -6.5728    -3.1253 C.3     
  21 C21            1.6176    -6.6684    -1.1726 C.3     
  22 C22           -2.5271    -6.7314     1.3573 C.3     
  23 H23           -0.7848    -0.6130     0.4512 H       
  24 H24            3.4631    -0.6241    -0.1566 H       
  25 H25           -0.8644    -4.3848    -1.8735 H       
  26 H26            0.9039    -4.2043    -1.9671 H       
  27 H27            1.0258    -4.8184     0.4802 H       
  28 H28           -0.6521    -2.4452     0.4237 H       
  29 H29            4.3040     2.1783     0.8921 H       
  30 H30            4.5217     1.4782    -0.7298 H       
  31 H31            3.6510     3.0183    -0.5349 H       
  32 H32           -0.5326    -6.7391    -1.0614 H       
  33 H33            0.7547     3.6173     2.2761 H       
  34 H34            2.5169     3.6126     2.0250 H       
  35 H35            1.5496     5.0187     1.5195 H       
  36 H36           -1.2906     2.1934     1.6825 H       
  37 H37           -1.0508     3.0309     0.1303 H       
  38 H38           -1.9498     1.4956     0.1836 H       
  39 H39            0.8258    -6.0591    -3.7089 H       
  40 H40            0.1646    -7.6496    -3.2599 H       
  41 H41           -0.9258    -6.2572    -3.4618 H       
  42 H42            1.7048    -6.5050    -0.0985 H       
  43 H43            1.7547    -7.7274    -1.3914 H       
  44 H44            2.3807    -6.0884    -1.6915 H       
  45 H45           -2.4777    -6.4664     2.4134 H       
  46 H46           -3.4036    -6.2660     0.9065 H       
  47 H47           -2.5990    -7.8145     1.2574 H       
@<TRIPOS>BOND
   1    1    2 ar
   2    1    3 ar
   3    1   19 1
   4    2    6 ar
   5    2   23 1
   6    3    4 ar
   7    3   14 1
   8    4    5 ar
   9    4   15 1
  10    5    6 ar
  11    5   24 1
  12    6    7 1
  13    7    8 2
  14    7   11 am
  15    9   16 1
  16    9   10 1
  17    9   25 1
  18    9   26 1
  19   10   12 1
  20   10   11 1
  21   10   27 1
  22   11   28 1
  23   12   13 2
  24   12   17 1
  25   14   18 1
  26   15   29 1
  27   15   30 1
  28   15   31 1
  29   16   20 1
  30   16   21 1
  31   16   32 1
  32   17   22 1
  33   18   33 1
  34   18   34 1
  35   18   35 1
  36   19   36 1
  37   19   37 1
  38   19   38 1
  39   20   39 1
  40   20   40 1
  41   20   41 1
  42   21   42 1
  43   21   43 1
  44   21   44 1
  45   22   45 1
  46   22   46 1
  47   22   47 1

#	End of record

