#	Name: ASD00841943
#	Creating user name:	WinNT
#	Creation time:	15. 06. 2019 18:43

#	Modifying user name:	WinNT
#	Modification time:	15. 06. 2019 18:43

#	Program:	/corina/corina34_cracker 3.40 0067  02.08.2006

@<TRIPOS>MOLECULE
ASD00841943
  92   97    0    0    0
SMALL
NO_CHARGES


@<TRIPOS>ATOM
   1 C1             0.8983     1.5126    -0.6766 C.ar    
   2 C2             1.2269     0.1734    -0.8268 C.ar    
   3 C3             1.2024    -0.6722     0.2730 C.ar    
   4 C4             0.8510    -0.1788     1.5143 C.ar    
   5 C5             0.5233     1.1566     1.6614 C.ar    
   6 C6             0.5475     2.0013     0.5673 C.ar    
   7 C7             1.5584    -2.1278     0.1133 C.3     
   8 C8             1.3379    -2.8734     1.4122 C.2     
   9 C9             0.7370    -2.7586    -1.0130 C.3     
  10 C10           -0.7295    -2.5247    -0.7568 C.2     
  11 N11           -1.6512    -3.0554    -1.5847 N.am    
  12 O12           -1.0804    -1.8590     0.1942 O.2     
  13 C13           -3.0767    -2.7408    -1.4181 C.3     
  14 C14           -3.8625    -4.0519    -1.3178 C.3     
  15 C15           -3.5496    -4.9241    -2.5358 C.3     
  16 C16           -2.0559    -5.2566    -2.5569 C.3     
  17 C17           -1.2490    -3.9547    -2.6747 C.3     
  18 C18           -4.3592    -6.2199    -2.4564 C.3     
  19 C19           -5.8541    -5.8888    -2.4369 C.3     
  20 C20           -6.6595    -7.1900    -2.4190 C.3     
  21 N21           -6.3317    -7.9865    -3.6083 N.3     
  22 C22           -4.9108    -8.3565    -3.6245 C.3     
  23 C23           -4.0531    -7.0902    -3.6785 C.3     
  24 C24           -7.1870    -9.1776    -3.6963 C.3     
  25 O25            0.2841    -3.0028     1.9986 O.2     
  26 N26            2.5289    -3.3645     1.7937 N.am    
  27 C27            3.0377    -2.2849    -0.1543 C.ar    
  28 C28            3.5472    -3.0373     0.8968 C.ar    
  29 C29            3.8569    -1.8433    -1.1687 C.ar    
  30 C30            5.2075    -2.1487    -1.1487 C.ar    
  31 C31            5.7283    -2.8984    -0.1059 C.ar    
  32 C32            4.9063    -3.3418     0.9125 C.ar    
  33 Cl33           6.2447    -1.5946    -2.4258 Cl      
  34 F34            7.0457    -3.1971    -0.0850 F       
  35 C35            2.5302    -5.9487     2.7406 C.ar    
  36 C36            1.2840    -6.3953     2.3264 C.ar    
  37 C37            3.5909    -6.8313     2.8108 C.ar    
  38 C38            3.4111    -8.1585     2.4681 C.ar    
  39 C39            2.1697    -8.6062     2.0549 C.ar    
  40 C40            1.1060    -7.7280     1.9835 C.ar    
  41 H41            2.0317    -9.6436     1.7877 H       
  42 O42            0.2390    -5.5293     2.2570 O.3     
  43 C43           -1.0149    -6.0590     1.8222 C.3     
  44 C44           -2.0623    -4.9439     1.8080 C.3     
  45 O45            1.5719    -0.3098    -2.0493 O.3     
  46 C46            1.9921    -0.0946    -4.4194 C.3     
  47 C47            1.4670     0.5889    -3.1553 C.3     
  48 S48            2.7621    -4.2556     3.1700 S.o2    
  49 O49            4.1337    -4.1128     3.5129 O.2     
  50 O50            1.7010    -3.9164     4.0522 O.2     
  51 H51            0.9210     2.1737    -1.5302 H       
  52 H52            0.8317    -0.8365     2.3707 H       
  53 H53            0.2481     1.5404     2.6327 H       
  54 H54            0.2912     3.0438     0.6847 H       
  55 H55            1.0165    -2.3056    -1.9641 H       
  56 H56            0.9331    -3.8302    -1.0494 H       
  57 H57           -3.2184    -2.1592    -0.5072 H       
  58 H58           -3.4276    -2.1693    -2.2774 H       
  59 H59           -3.5748    -4.5799    -0.4086 H       
  60 H60           -4.9304    -3.8348    -1.2905 H       
  61 H61           -3.8146    -4.3857    -3.4457 H       
  62 H62           -1.7851    -5.7733    -1.6361 H       
  63 H63           -1.8378    -5.8971    -3.4116 H       
  64 H64           -1.4520    -3.4848    -3.6371 H       
  65 H65           -0.1848    -4.1755    -2.5908 H       
  66 H66           -4.0939    -6.7601    -1.5476 H       
  67 H67           -6.0859    -5.3050    -1.5461 H       
  68 H68           -6.1111    -5.3139    -3.3266 H       
  69 H69           -6.4122    -7.7579    -1.5221 H       
  70 H70           -7.7245    -6.9579    -2.4195 H       
  71 H71           -4.6716    -8.9189    -2.7220 H       
  72 H72           -4.7056    -8.9716    -4.5007 H       
  73 H73           -4.2818    -6.5342    -4.5877 H       
  74 H74           -2.9982    -7.3647    -3.6747 H       
  75 H75           -8.2313    -8.8714    -3.7576 H       
  76 H76           -6.9231    -9.7494    -4.5860 H       
  77 H77           -7.0410    -9.7959    -2.8106 H       
  78 H78            3.4467    -1.2596    -1.9795 H       
  79 H79            5.3186    -3.9254     1.7223 H       
  80 H80            4.5613    -6.4840     3.1332 H       
  81 H81            4.2416    -8.8467     2.5229 H       
  82 H82            0.1365    -8.0783     1.6614 H       
  83 H83           -0.9074    -6.4694     0.8181 H       
  84 H84           -1.3326    -6.8472     2.5048 H       
  85 H85           -3.0188    -5.3480     1.4763 H       
  86 H86           -2.1698    -4.5335     2.8120 H       
  87 H87           -1.7446    -4.1557     1.1254 H       
  88 H88            1.9938     0.6184    -5.2439 H       
  89 H89            3.0074    -0.4507    -4.2449 H       
  90 H90            1.3491    -0.9383    -4.6700 H       
  91 H91            0.4231     0.8672    -3.2996 H       
  92 H92            2.0569     1.4832    -2.9541 H       
@<TRIPOS>BOND
   1    1    2 ar
   2    1    6 ar
   3    1   51 1
   4    2    3 ar
   5    2   45 1
   6    3    4 ar
   7    3    7 1
   8    4    5 ar
   9    4   52 1
  10    5    6 ar
  11    5   53 1
  12    6   54 1
  13    7    8 1
  14    7    9 1
  15    7   27 1
  16    8   25 2
  17    8   26 am
  18    9   10 1
  19    9   55 1
  20    9   56 1
  21   10   11 am
  22   10   12 2
  23   11   13 1
  24   11   17 1
  25   13   14 1
  26   13   57 1
  27   13   58 1
  28   14   15 1
  29   14   59 1
  30   14   60 1
  31   15   16 1
  32   15   18 1
  33   15   61 1
  34   16   17 1
  35   16   62 1
  36   16   63 1
  37   17   64 1
  38   17   65 1
  39   18   19 1
  40   18   23 1
  41   18   66 1
  42   19   20 1
  43   19   67 1
  44   19   68 1
  45   20   21 1
  46   20   69 1
  47   20   70 1
  48   21   22 1
  49   21   24 1
  50   22   23 1
  51   22   71 1
  52   22   72 1
  53   23   73 1
  54   23   74 1
  55   24   75 1
  56   24   76 1
  57   24   77 1
  58   26   48 am
  59   26   28 1
  60   27   28 ar
  61   27   29 ar
  62   28   32 ar
  63   29   30 ar
  64   29   78 1
  65   30   31 ar
  66   30   33 1
  67   31   32 ar
  68   31   34 1
  69   32   79 1
  70   35   36 ar
  71   35   37 ar
  72   35   48 1
  73   36   42 1
  74   36   40 ar
  75   37   38 ar
  76   37   80 1
  77   38   39 ar
  78   38   81 1
  79   39   40 ar
  80   39   41 1
  81   40   82 1
  82   42   43 1
  83   43   44 1
  84   43   83 1
  85   43   84 1
  86   44   85 1
  87   44   86 1
  88   44   87 1
  89   45   47 1
  90   46   47 1
  91   46   88 1
  92   46   89 1
  93   46   90 1
  94   47   91 1
  95   47   92 1
  96   48   49 2
  97   48   50 2

#	End of record

