#	Name: ASD02030028
#	Creating user name:	WinNT
#	Creation time:	15. 06. 2019 20:14

#	Modifying user name:	WinNT
#	Modification time:	15. 06. 2019 20:14

#	Program:	/corina/corina34_cracker 3.40 0067  02.08.2006

@<TRIPOS>MOLECULE
ASD02030028
  44   47    0    0    0
SMALL
NO_CHARGES


@<TRIPOS>ATOM
   1 C1            -0.0144     1.3705     0.0139 C.ar    
   2 C2             0.0078    -0.0073     0.0069 C.ar    
   3 C3            -1.1976    -0.7186     0.0111 C.ar    
   4 C4            -2.4260    -0.0234     0.0455 C.ar    
   5 C5            -2.4290     1.3650     0.0459 C.ar    
   6 C6            -1.2286     2.0494     0.0267 C.ar    
   7 C7             1.2450     2.1986     0.0020 C.3     
   8 C8             2.4468     1.3560     0.4236 C.3     
   9 C9             2.4631     0.0794    -0.4256 C.3     
  10 C10            1.2896    -0.7985     0.0032 C.3     
  11 C11           -1.1825    -2.1981    -0.0344 C.2     
  12 C12           -2.4072    -2.9219     0.4837 C.2     
  13 C13           -3.6669    -2.1850     0.3090 C.2     
  14 C14           -3.6774    -0.7983     0.0973 C.2     
  15 C15           -5.0535    -2.6036     0.3034 C.2     
  16 C16           -5.7737    -1.4814     0.0950 C.2     
  17 O17           -4.9473    -0.4249    -0.0256 O.3     
  18 O18           -0.2272    -2.8063    -0.4699 O.2     
  19 O19           -2.3533    -4.0195     1.0001 O.2     
  20 C20           -5.5824    -4.0023     0.4905 C.3     
  21 C21           -5.7149    -4.3017     1.9851 C.3     
  22 C22            1.4790     2.7402    -1.4097 C.3     
  23 C23            1.0865     3.3716     0.9714 C.3     
  24 O24            2.3192     4.0895     1.0560 O.3     
  25 H25           -3.3634     1.9065     0.0585 H       
  26 H26           -1.2331     3.1293     0.0272 H       
  27 H27            3.3657     1.9186     0.2586 H       
  28 H28            2.3600     1.0944     1.4781 H       
  29 H29            2.3621     0.3382    -1.4796 H       
  30 H30            3.3994    -0.4555    -0.2665 H       
  31 H31            1.4767    -1.1838     1.0056 H       
  32 H32            1.1940    -1.6342    -0.6900 H       
  33 H33           -6.8511    -1.4372     0.0345 H       
  34 H34           -6.5593    -4.0881     0.0148 H       
  35 H35           -4.8935    -4.7149     0.0369 H       
  36 H36           -6.0974    -5.3134     2.1205 H       
  37 H37           -4.7379    -4.2159     2.4609 H       
  38 H38           -6.4037    -3.5891     2.4387 H       
  39 H39            0.6322     3.3589    -1.7065 H       
  40 H40            2.3892     3.3398    -1.4225 H       
  41 H41            1.5825     1.9077    -2.1057 H       
  42 H42            0.3023     4.0373     0.6110 H       
  43 H43            0.8176     2.9939     1.9579 H       
  44 H44            2.2920     4.8486     1.6545 H       
@<TRIPOS>BOND
   1    1    2 ar
   2    1    7 1
   3    1    6 ar
   4    2    3 ar
   5    2   10 1
   6    3    4 ar
   7    3   11 1
   8    4    5 ar
   9    4   14 1
  10    5    6 ar
  11    5   25 1
  12    6   26 1
  13    7    8 1
  14    7   22 1
  15    7   23 1
  16    8    9 1
  17    8   27 1
  18    8   28 1
  19    9   10 1
  20    9   29 1
  21    9   30 1
  22   10   31 1
  23   10   32 1
  24   11   12 1
  25   11   18 2
  26   12   13 1
  27   12   19 2
  28   13   14 2
  29   13   15 1
  30   14   17 1
  31   15   16 2
  32   15   20 1
  33   16   17 1
  34   16   33 1
  35   20   21 1
  36   20   34 1
  37   20   35 1
  38   21   36 1
  39   21   37 1
  40   21   38 1
  41   22   39 1
  42   22   40 1
  43   22   41 1
  44   23   24 1
  45   23   42 1
  46   23   43 1
  47   24   44 1

#	End of record

