#	Name: ASD01911394
#	Creating user name:	WinNT
#	Creation time:	15. 06. 2019 19:57

#	Modifying user name:	WinNT
#	Modification time:	15. 06. 2019 19:57

#	Program:	/corina/corina34_cracker 3.40 0067  02.08.2006

@<TRIPOS>MOLECULE
ASD01911394
  45   47    0    0    0
SMALL
NO_CHARGES


@<TRIPOS>ATOM
   1 N1            -0.0069     1.4096    -0.0033 N.2     
   2 N2            -0.0071     0.0096    -0.0453 N.pl3   
   3 C3             1.2420     1.8244     0.0384 C.2     
   4 C4             2.0819     0.6980     0.0242 C.2     
   5 C5             1.2898    -0.4114    -0.0276 C.2     
   6 C6             1.7537    -1.8164    -0.0589 C.ar    
   7 C7             1.6865     3.2395     0.0913 C.ar    
   8 C8             3.0442     3.5477     0.0266 C.ar    
   9 C9            -1.1917    -0.8507    -0.0982 C.3     
  10 C10           -1.6294    -1.0154    -1.5307 C.2     
  11 O11           -2.7019    -1.7679    -1.8225 O.3     
  12 O12           -1.0149    -0.4701    -2.4167 O.2     
  13 C13           -3.0658    -1.8820    -3.2236 C.3     
  14 C14            0.9284    -2.8151    -0.5760 C.ar    
  15 C15            3.4543     4.8634     0.0755 C.ar    
  16 C16            2.5162     5.8806     0.1891 C.ar    
  17 C17            1.1635     5.5766     0.2541 C.ar    
  18 C18            0.7471     4.2626     0.1999 C.ar    
  19 O19            2.9232     7.1762     0.2370 O.3     
  20 C20            1.3666    -4.1232    -0.6024 C.ar    
  21 C21            2.6216    -4.4452    -0.1175 C.ar    
  22 C22            3.4446    -3.4594     0.3970 C.ar    
  23 C23            3.0203    -2.1467     0.4233 C.ar    
  24 C24            4.3298     7.4174     0.1656 C.3     
  25 C25            0.1483     6.6835     0.3779 C.3     
  26 H26            3.1615     0.7088     0.0493 H       
  27 H27            3.7744     2.7568    -0.0614 H       
  28 H28           -0.9508    -1.8269     0.3227 H       
  29 H29           -1.9973    -0.3955     0.4779 H       
  30 H30           -3.9472    -2.5160    -3.3196 H       
  31 H31           -3.2849    -0.8921    -3.6238 H       
  32 H32           -2.2384    -2.3235    -3.7790 H       
  33 H33           -0.0517    -2.5650    -0.9546 H       
  34 H34            4.5062     5.1028     0.0258 H       
  35 H35           -0.3056     4.0267     0.2503 H       
  36 H36            0.7284    -4.8973    -1.0022 H       
  37 H37            2.9601    -5.4705    -0.1403 H       
  38 H38            4.4230    -3.7172     0.7748 H       
  39 H39            3.6639    -1.3779     0.8248 H       
  40 H40            4.8260     6.9234     1.0010 H       
  41 H41            4.7190     7.0227    -0.7729 H       
  42 H42            4.5175     8.4900     0.2143 H       
  43 H43           -0.1587     7.0078    -0.6165 H       
  44 H44           -0.7209     6.3197     0.9258 H       
  45 H45            0.5902     7.5236     0.9137 H       
@<TRIPOS>BOND
   1    1    2 1
   2    1    3 2
   3    2    9 1
   4    2    5 1
   5    3    4 1
   6    3    7 1
   7    4    5 2
   8    4   26 1
   9    5    6 1
  10    6   14 ar
  11    6   23 ar
  12    7    8 ar
  13    7   18 ar
  14    8   15 ar
  15    8   27 1
  16    9   10 1
  17    9   28 1
  18    9   29 1
  19   10   11 1
  20   10   12 2
  21   11   13 1
  22   13   30 1
  23   13   31 1
  24   13   32 1
  25   14   20 ar
  26   14   33 1
  27   15   16 ar
  28   15   34 1
  29   16   17 ar
  30   16   19 1
  31   17   18 ar
  32   17   25 1
  33   18   35 1
  34   19   24 1
  35   20   21 ar
  36   20   36 1
  37   21   22 ar
  38   21   37 1
  39   22   23 ar
  40   22   38 1
  41   23   39 1
  42   24   40 1
  43   24   41 1
  44   24   42 1
  45   25   43 1
  46   25   44 1
  47   25   45 1

#	End of record

