#	Name: ASD03540322
#	Creating user name:	WinNT
#	Creation time:	15. 06. 2019 20:43

#	Modifying user name:	WinNT
#	Modification time:	15. 06. 2019 20:43

#	Program:	/corina/corina34_cracker 3.40 0067  02.08.2006

@<TRIPOS>MOLECULE
ASD03540322
  56   59    0    0    0
SMALL
NO_CHARGES


@<TRIPOS>ATOM
   1 C1            -0.0162     1.3436     0.0094 C.2     
   2 N2             0.0021    -0.0041     0.0020 N.am    
   3 O3             1.0277     1.9653     0.0028 O.2     
   4 O4            -1.1912     2.0008     0.0186 O.3     
   5 O5             2.5681    -2.2689    -0.0354 O.3     
   6 N6             1.3939    -1.9805    -0.0223 N.2     
   7 C7             1.2195    -0.6850    -0.0133 C.2     
   8 C8             2.5180    -0.1100    -0.0226 C.2     
   9 C9             3.3477    -1.1780    -0.0367 C.2     
  10 C10            4.8543    -1.1478    -0.0507 C.3     
  11 C11            5.6052    -2.3136     1.9404 C.2     
  12 N12            6.0646    -2.3731     3.1986 N.am    
  13 C13            6.3060    -1.2247     3.9315 C.2     
  14 C14            6.0657     0.0130     3.3469 C.2     
  15 C15            5.5586     0.0255     1.9564 C.2     
  16 N16            5.3555    -1.1462     1.3259 N.am    
  17 C17            6.3513     1.0832     4.1978 C.2     
  18 C18            6.8006     0.7206     5.4108 C.2     
  19 S19            6.8822    -1.0281     5.5276 S.3     
  20 O20            5.3295     1.0788     1.3917 O.2     
  21 O21            5.4132    -3.3501     1.3347 O.2     
  22 C22            6.3156    -3.6806     3.8098 C.3     
  23 C23            7.1691     1.6506     6.4809 C.2     
  24 N24            7.6097     1.1769     7.6633 N.am    
  25 O25            7.0773     2.8511     6.3023 O.2     
  26 C26            7.9782     2.1069     8.7335 C.3     
  27 C27            8.4346     1.3285     9.9405 C.ar    
  28 C28            9.7682     0.9970    10.0842 C.ar    
  29 C29           10.1877     0.2805    11.1954 C.ar    
  30 C30            9.2663    -0.1016    12.1599 C.ar    
  31 C31            7.9343     0.2322    12.0116 C.ar    
  32 C32            7.5195     0.9515    10.9057 C.ar    
  33 O33           11.4988    -0.0471    11.3389 O.3     
  34 C34           11.8587    -0.7858    12.5080 C.3     
  35 C35           -1.1349     3.4517     0.0262 C.3     
  36 H36           -0.8313    -0.5005     0.0073 H       
  37 H37            2.7818     0.9373    -0.0192 H       
  38 H38            5.2305    -2.0273    -0.5733 H       
  39 H39            5.1949    -0.2477    -0.5625 H       
  40 H40            6.2222     2.1148     3.9052 H       
  41 H41            6.0729    -4.4679     3.0961 H       
  42 H42            7.3665    -3.7551     4.0896 H       
  43 H43            5.6943    -3.7915     4.6985 H       
  44 H44            7.6828     0.2202     7.8056 H       
  45 H45            8.7864     2.7531     8.3910 H       
  46 H46            7.1140     2.7158     8.9993 H       
  47 H47           10.4834     1.2953     9.3319 H       
  48 H48            9.5904    -0.6599    13.0258 H       
  49 H49            7.2167    -0.0653    12.7618 H       
  50 H50            6.4783     1.2156    10.7938 H       
  51 H51           11.6023    -0.2081    13.3961 H       
  52 H52           11.3173    -1.7317    12.5211 H       
  53 H53           12.9310    -0.9809    12.4987 H       
  54 H54           -0.6031     3.7900     0.9155 H       
  55 H55           -0.6116     3.7997    -0.8644 H       
  56 H56           -2.1477     3.8546     0.0332 H       
@<TRIPOS>BOND
   1    1    2 am
   2    1    3 2
   3    1    4 1
   4    2    7 1
   5    2   36 1
   6    4   35 1
   7    5    6 1
   8    5    9 1
   9    6    7 2
  10    7    8 1
  11    8    9 2
  12    8   37 1
  13    9   10 1
  14   10   16 1
  15   10   38 1
  16   10   39 1
  17   11   12 am
  18   11   16 am
  19   11   21 2
  20   12   13 1
  21   12   22 1
  22   13   14 2
  23   13   19 1
  24   14   15 1
  25   14   17 1
  26   15   16 am
  27   15   20 2
  28   17   18 2
  29   17   40 1
  30   18   19 1
  31   18   23 1
  32   22   41 1
  33   22   42 1
  34   22   43 1
  35   23   24 am
  36   23   25 2
  37   24   26 1
  38   24   44 1
  39   26   27 1
  40   26   45 1
  41   26   46 1
  42   27   28 ar
  43   27   32 ar
  44   28   29 ar
  45   28   47 1
  46   29   30 ar
  47   29   33 1
  48   30   31 ar
  49   30   48 1
  50   31   32 ar
  51   31   49 1
  52   32   50 1
  53   33   34 1
  54   34   51 1
  55   34   52 1
  56   34   53 1
  57   35   54 1
  58   35   55 1
  59   35   56 1

#	End of record

