#	Name: ASD03430689
#	Creating user name:	WinNT
#	Creation time:	15. 06. 2019 20:41

#	Modifying user name:	WinNT
#	Modification time:	15. 06. 2019 20:41

#	Program:	/corina/corina34_cracker 3.40 0067  02.08.2006

@<TRIPOS>MOLECULE
ASD03430689
  58   64    0    0    0
SMALL
NO_CHARGES


@<TRIPOS>ATOM
   1 C1             2.6681     0.3853     0.0017 C.ar    
   2 C2             2.0986    -0.8772    -0.0375 C.ar    
   3 C3             2.8886    -1.9850    -0.2562 C.ar    
   4 C4             4.2650    -1.8557    -0.4297 C.ar    
   5 C5             4.8353    -0.5879    -0.3959 C.ar    
   6 C6             4.0438     0.5267    -0.1813 C.ar    
   7 O7             4.8574    -3.0718    -0.6016 O.3     
   8 C8             2.5779    -3.4530    -0.3757 C.3     
   9 C9             3.8597    -4.0367    -0.9864 C.3     
  10 C10            0.9837    -4.6332     0.8018 C.ar    
  11 C11            2.2534    -4.0791     0.9479 C.ar    
  12 C12            1.3799    -3.7127    -1.2434 C.2     
  13 N13            0.5014    -4.4026    -0.4888 N.am    
  14 O14            1.2317    -3.3690    -2.3971 O.2     
  15 C15            2.9285    -4.1818     2.1432 C.ar    
  16 C16            2.3479    -4.8400     3.2132 C.ar    
  17 C17            1.0886    -5.3945     3.0792 C.ar    
  18 C18            0.4074    -5.2937     1.8837 C.ar    
  19 C19           -0.8069    -4.8571    -0.9663 C.3     
  20 O20            2.1577     1.6261     0.1986 O.3     
  21 C21            3.1514     2.5261     0.1362 C.2     
  22 N22            4.3178     1.8919    -0.0943 N.am    
  23 C23            5.6338     2.5214    -0.2295 C.3     
  24 O24            3.0201     3.7275     0.2712 O.2     
  25 C25           -1.8941    -4.1898    -0.1641 C.ar    
  26 C26           -3.0381    -4.8913     0.1675 C.ar    
  27 C27           -4.0354    -4.2791     0.9033 C.ar    
  28 C28           -3.8885    -2.9656     1.3081 C.ar    
  29 C29           -2.7440    -2.2643     0.9773 C.ar    
  30 C30           -1.7448    -2.8778     0.2451 C.ar    
  31 C31           -0.9633    -4.4972    -2.4213 C.ar    
  32 C32           -0.9216    -5.4861    -3.3863 C.ar    
  33 C33           -1.0651    -5.1559    -4.7210 C.ar    
  34 C34           -1.2507    -3.8369    -5.0906 C.ar    
  35 C35           -1.2933    -2.8481    -4.1255 C.ar    
  36 C36           -1.1542    -3.1788    -2.7906 C.ar    
  37 H37            1.0342    -0.9933     0.1039 H       
  38 H38            5.8998    -0.4728    -0.5373 H       
  39 H39            3.7784    -4.0973    -2.0717 H       
  40 H40            4.0816    -5.0144    -0.5587 H       
  41 H41            3.9124    -3.7485     2.2460 H       
  42 H42            2.8777    -4.9206     4.1509 H       
  43 H43            0.6359    -5.9086     3.9142 H       
  44 H44           -0.5762    -5.7289     1.7865 H       
  45 H45           -0.8807    -5.9383    -0.8495 H       
  46 H46            5.5338     3.6007    -0.1150 H       
  47 H47            6.3022     2.1347     0.5398 H       
  48 H48            6.0445     2.2970    -1.2139 H       
  49 H49           -3.1529    -5.9176    -0.1487 H       
  50 H50           -4.9295    -4.8270     1.1618 H       
  51 H51           -4.6680    -2.4871     1.8824 H       
  52 H52           -2.6294    -1.2379     1.2932 H       
  53 H53           -0.8491    -2.3311    -0.0101 H       
  54 H54           -0.7766    -6.5166    -3.0976 H       
  55 H55           -1.0318    -5.9285    -5.4750 H       
  56 H56           -1.3621    -3.5789    -6.1334 H       
  57 H57           -1.4380    -1.8176    -4.4144 H       
  58 H58           -1.1912    -2.4067    -2.0363 H       
@<TRIPOS>BOND
   1    1    2 ar
   2    1    6 ar
   3    1   20 1
   4    2    3 ar
   5    2   37 1
   6    3    4 ar
   7    3    8 1
   8    4    5 ar
   9    4    7 1
  10    5    6 ar
  11    5   38 1
  12    6   22 1
  13    7    9 1
  14    8    9 1
  15    8   11 1
  16    8   12 1
  17    9   39 1
  18    9   40 1
  19   10   11 ar
  20   10   13 1
  21   10   18 ar
  22   11   15 ar
  23   12   13 am
  24   12   14 2
  25   13   19 1
  26   15   16 ar
  27   15   41 1
  28   16   17 ar
  29   16   42 1
  30   17   18 ar
  31   17   43 1
  32   18   44 1
  33   19   25 1
  34   19   31 1
  35   19   45 1
  36   20   21 1
  37   21   22 am
  38   21   24 2
  39   22   23 1
  40   23   46 1
  41   23   47 1
  42   23   48 1
  43   25   26 ar
  44   25   30 ar
  45   26   27 ar
  46   26   49 1
  47   27   28 ar
  48   27   50 1
  49   28   29 ar
  50   28   51 1
  51   29   30 ar
  52   29   52 1
  53   30   53 1
  54   31   32 ar
  55   31   36 ar
  56   32   33 ar
  57   32   54 1
  58   33   34 ar
  59   33   55 1
  60   34   35 ar
  61   34   56 1
  62   35   36 ar
  63   35   57 1
  64   36   58 1

#	End of record

