#	Name: ASD01412006
#	Creating user name:	WinNT
#	Creation time:	15. 06. 2019 19:19

#	Modifying user name:	WinNT
#	Modification time:	15. 06. 2019 19:19

#	Program:	/corina/corina34_cracker 3.40 0067  02.08.2006

@<TRIPOS>MOLECULE
ASD01412006
  76   80    0    0    0
SMALL
NO_CHARGES


@<TRIPOS>ATOM
   1 C1            -1.1716     3.2502    -0.6267 C.ar    
   2 C2            -0.9739     1.9111    -1.0227 C.ar    
   3 C3            -2.0428     1.0032    -0.9795 C.ar    
   4 C4            -3.2690     1.4146    -0.5564 C.ar    
   5 C5            -3.4746     2.7447    -0.1607 C.ar    
   6 C6            -2.4217     3.6585    -0.1924 C.ar    
   7 N7             0.0366     3.9037    -0.7714 N.pl3   
   8 C8             0.9696     3.0089    -1.2435 C.2     
   9 C9             0.3825     1.7916    -1.4048 C.2     
  10 C10            1.0578     0.5393    -1.9013 C.3     
  11 C11            0.9691    -0.5477    -0.8282 C.3     
  12 C12            1.6547    -1.8192    -1.3323 C.3     
  13 C13            0.9594    -2.3026    -2.6066 C.3     
  14 C14            1.0481    -1.2156    -3.6797 C.3     
  15 C15            0.3625     0.0559    -3.1756 C.3     
  16 C16           -4.8086     3.1771     0.2956 C.2     
  17 O17           -4.9897     4.3295     0.6392 O.2     
  18 N18           -5.8270     2.2951     0.3319 N.am    
  19 C19           -7.1522     2.7246     0.7852 C.3     
  20 C20           -8.1043     1.5577     0.7310 C.2     
  21 C21           -7.0574     3.2391     2.2230 C.3     
  22 C22           -7.6644     3.8434    -0.1240 C.3     
  23 C23           -8.8161    -0.4841    -0.2516 C.ar    
  24 O24           -8.9744     1.4456     1.5684 O.2     
  25 C25           -9.1917    -1.0728     0.9522 C.ar    
  26 C26          -10.0119    -2.1778     0.9538 C.ar    
  27 C27          -10.4691    -2.7093    -0.2581 C.ar    
  28 C28          -10.0890    -2.1134    -1.4668 C.ar    
  29 C29           -9.2681    -1.0091    -1.4587 C.ar    
  30 C30          -11.3447    -3.8893    -0.2616 C.2     
  31 C31          -12.3923    -3.9557     0.5890 C.2     
  32 N32           -7.9889     0.6388    -0.2481 N.am    
  33 C33            0.2838     5.3165    -0.4726 C.3     
  34 C34            2.3792     3.3190    -1.5283 C.2     
  35 C35            2.8241     4.4192    -2.1957 C.2     
  36 C36            4.1931     4.4854    -2.3369 C.2     
  37 C37            4.8703     3.4654    -1.8003 C.2     
  38 S38            3.7543     2.3304    -1.0535 S.3     
  39 C39          -12.7903    -2.8045     1.3146 C.2     
  40 O40          -12.2160    -1.7465     1.1395 O.2     
  41 O41          -13.8059    -2.8825     2.1995 O.3     
  42 H42           -1.8924    -0.0225    -1.2825 H       
  43 H43           -4.0892     0.7127    -0.5254 H       
  44 H44           -2.5823     4.6819     0.1130 H       
  45 H45            2.1048     0.7522    -2.1171 H       
  46 H46            1.4644    -0.2033     0.0796 H       
  47 H47           -0.0779    -0.7606    -0.6124 H       
  48 H48            2.7017    -1.6063    -1.5481 H       
  49 H49            1.5915    -2.5936    -0.5678 H       
  50 H50            1.4479    -3.2084    -2.9657 H       
  51 H51           -0.0876    -2.5155    -2.3908 H       
  52 H52            2.0951    -1.0027    -3.8955 H       
  53 H53            0.5528    -1.5600    -4.5875 H       
  54 H54           -0.6845    -0.1571    -2.9598 H       
  55 H55            0.4257     0.8302    -3.9401 H       
  56 H56           -5.6825     1.3759     0.0578 H       
  57 H57           -6.3688     4.0831     2.2623 H       
  58 H58           -8.0434     3.5587     2.5603 H       
  59 H59           -6.6925     2.4420     2.8708 H       
  60 H60           -7.7320     3.4769    -1.1483 H       
  61 H61           -8.6504     4.1630     0.2133 H       
  62 H62           -6.9758     4.6874    -0.0848 H       
  63 H63           -8.8386    -0.6621     1.8865 H       
  64 H64          -10.3023    -2.6344     1.8885 H       
  65 H65          -10.4390    -2.5203    -2.4040 H       
  66 H66           -8.9747    -0.5485    -2.3905 H       
  67 H67          -11.1509    -4.7036    -0.9441 H       
  68 H68          -12.9266    -4.8856     0.7161 H       
  69 H69           -7.3306     0.7584    -0.9504 H       
  70 H70            0.5953     5.4188     0.5669 H       
  71 H71            1.0700     5.6939    -1.1264 H       
  72 H72           -0.6300     5.8877    -0.6360 H       
  73 H73            2.1590     5.1771    -2.5826 H       
  74 H74            4.6837     5.3024    -2.8450 H       
  75 H75            5.9447     3.3566    -1.8191 H       
  76 H76          -14.0044    -2.0475     2.6451 H       
@<TRIPOS>BOND
   1    1    2 ar
   2    1    7 1
   3    1    6 ar
   4    2    3 ar
   5    2    9 1
   6    3    4 ar
   7    3   42 1
   8    4    5 ar
   9    4   43 1
  10    5    6 ar
  11    5   16 1
  12    6   44 1
  13    7    8 1
  14    7   33 1
  15    8    9 2
  16    8   34 1
  17    9   10 1
  18   10   11 1
  19   10   15 1
  20   10   45 1
  21   11   12 1
  22   11   46 1
  23   11   47 1
  24   12   13 1
  25   12   48 1
  26   12   49 1
  27   13   14 1
  28   13   50 1
  29   13   51 1
  30   14   15 1
  31   14   52 1
  32   14   53 1
  33   15   54 1
  34   15   55 1
  35   16   17 2
  36   16   18 am
  37   18   19 1
  38   18   56 1
  39   19   20 1
  40   19   21 1
  41   19   22 1
  42   20   24 2
  43   20   32 am
  44   21   57 1
  45   21   58 1
  46   21   59 1
  47   22   60 1
  48   22   61 1
  49   22   62 1
  50   23   25 ar
  51   23   29 ar
  52   23   32 1
  53   25   26 ar
  54   25   63 1
  55   26   27 ar
  56   26   64 1
  57   27   28 ar
  58   27   30 1
  59   28   29 ar
  60   28   65 1
  61   29   66 1
  62   30   31 2
  63   30   67 1
  64   31   39 1
  65   31   68 1
  66   32   69 1
  67   33   70 1
  68   33   71 1
  69   33   72 1
  70   34   35 2
  71   34   38 1
  72   35   36 1
  73   35   73 1
  74   36   37 2
  75   36   74 1
  76   37   38 1
  77   37   75 1
  78   39   40 2
  79   39   41 1
  80   41   76 1

#	End of record

