#	Name: ASD08150261
#	Creating user name:	WinNT
#	Creation time:	15. 06. 2019 21:15

#	Modifying user name:	WinNT
#	Modification time:	15. 06. 2019 21:15

#	Program:	/corina/corina34_cracker 3.40 0067  02.08.2006

@<TRIPOS>MOLECULE
ASD08150261
  49   53    0    0    0
SMALL
NO_CHARGES


@<TRIPOS>ATOM
   1 N1             0.0067     1.1901     0.3017 N.2     
   2 C2             0.0950    -0.1033     0.2298 C.2     
   3 N3             1.2684    -0.7626     0.0433 N.am    
   4 C4             2.4305    -0.0799    -0.0794 C.2     
   5 C5             2.3659     1.3843    -0.0032 C.ar    
   6 C6             3.5088     2.1824    -0.1176 C.ar    
   7 C7             3.3864     3.5595    -0.0374 C.ar    
   8 C8             2.1448     4.1452     0.1547 C.ar    
   9 C9             1.0082     3.3742     0.2695 C.ar    
  10 C10            1.1016     1.9843     0.1926 C.ar    
  11 O11            3.4889    -0.6582    -0.2461 O.2     
  12 C12           -1.1682    -0.9146     0.3605 C.3     
  13 S13           -2.5528     0.1835     0.7518 S.3     
  14 N14           -5.7689     0.6010     1.3944 N.2     
  15 C15           -7.0396     0.4136     1.6044 C.2     
  16 N16           -7.3391    -0.9118     1.4946 N.pl3   
  17 C17           -6.1742    -1.5734     1.1984 C.ar    
  18 N18           -5.8452    -2.8425     0.9798 N.ar    
  19 C19           -4.6007    -3.1764     0.7094 C.ar    
  20 N20           -3.6272    -2.2873     0.6407 N.ar    
  21 C21           -3.8603    -0.9940     0.8449 C.ar    
  22 C22           -5.1742    -0.5884     1.1373 C.ar    
  23 O23            4.7260     1.6128    -0.3048 O.3     
  24 C24            5.8453     2.4946    -0.4121 C.3     
  25 C25            1.2756    -2.2259    -0.0252 C.3     
  26 C26            1.2281    -2.6616    -1.4671 C.ar    
  27 C27            2.3949    -2.7403    -2.2041 C.ar    
  28 C28            2.3513    -3.1399    -3.5267 C.ar    
  29 C29            1.1410    -3.4611    -4.1122 C.ar    
  30 C30           -0.0257    -3.3833    -3.3749 C.ar    
  31 C31            0.0184    -2.9879    -2.0510 C.ar    
  32 H32            4.2648     4.1817    -0.1249 H       
  33 H33            2.0671     5.2207     0.2157 H       
  34 H34            0.0477     3.8448     0.4193 H       
  35 H35           -1.3676    -1.4302    -0.5789 H       
  36 H36           -1.0486    -1.6471     1.1587 H       
  37 H37           -7.7517     1.1930     1.8321 H       
  38 H38           -8.2150    -1.3134     1.6054 H       
  39 H39           -4.3674    -4.2168     0.5373 H       
  40 H40            6.7544     1.9115    -0.5592 H       
  41 H41            5.7011     3.1631    -1.2609 H       
  42 H42            5.9342     3.0818     0.5019 H       
  43 H43            2.1849    -2.6069     0.4397 H       
  44 H44            0.4061    -2.6187     0.5019 H       
  45 H45            3.3405    -2.4893    -1.7467 H       
  46 H46            3.2628    -3.2007    -4.1028 H       
  47 H47            1.1068    -3.7726    -5.1457 H       
  48 H48           -0.9714    -3.6340    -3.8323 H       
  49 H49           -0.8927    -2.9306    -1.4739 H       
@<TRIPOS>BOND
   1    1    2 2
   2    1   10 1
   3    2    3 1
   4    2   12 1
   5    3    4 am
   6    3   25 1
   7    4    5 1
   8    4   11 2
   9    5    6 ar
  10    5   10 ar
  11    6    7 ar
  12    6   23 1
  13    7    8 ar
  14    7   32 1
  15    8    9 ar
  16    8   33 1
  17    9   10 ar
  18    9   34 1
  19   12   13 1
  20   12   35 1
  21   12   36 1
  22   13   21 1
  23   14   15 2
  24   14   22 1
  25   15   16 1
  26   15   37 1
  27   16   17 1
  28   16   38 1
  29   17   18 ar
  30   17   22 ar
  31   18   19 ar
  32   19   20 ar
  33   19   39 1
  34   20   21 ar
  35   21   22 ar
  36   23   24 1
  37   24   40 1
  38   24   41 1
  39   24   42 1
  40   25   26 1
  41   25   43 1
  42   25   44 1
  43   26   27 ar
  44   26   31 ar
  45   27   28 ar
  46   27   45 1
  47   28   29 ar
  48   28   46 1
  49   29   30 ar
  50   29   47 1
  51   30   31 ar
  52   30   48 1
  53   31   49 1

#	End of record

