#	Name: ASD05790021
#	Creating user name:	WinNT
#	Creation time:	15. 06. 2019 21:03

#	Modifying user name:	WinNT
#	Modification time:	15. 06. 2019 21:03

#	Program:	/corina/corina34_cracker 3.40 0067  02.08.2006

@<TRIPOS>MOLECULE
ASD05790021
  49   52    0    0    0
SMALL
NO_CHARGES


@<TRIPOS>ATOM
   1 C1            -0.1753     1.4716    -0.5693 C.2     
   2 C2            -0.1532    -0.0033    -0.5732 C.ar    
   3 C3             0.9017    -0.6910    -1.1893 C.ar    
   4 C4             0.9121    -2.0776    -1.1868 C.ar    
   5 C5            -0.1127    -2.7766    -0.5798 C.ar    
   6 C6            -1.1567    -2.1008     0.0299 C.ar    
   7 C7            -1.1803    -0.7228     0.0421 C.ar    
   8 O8             0.7232     2.0945    -1.1016 O.2     
   9 N9            -1.1941     2.1288     0.0193 N.am    
  10 C10           -1.1619     3.5212     0.1191 C.ar    
  11 C11           -2.3411     4.2514     0.0191 C.ar    
  12 C12           -2.3127     5.6253     0.1171 C.ar    
  13 C13           -1.0979     6.2845     0.3173 C.ar    
  14 C14            0.0846     5.5482     0.4173 C.ar    
  15 C15            0.0486     4.1742     0.3241 C.ar    
  16 O16           -2.1300     8.5725     0.3426 O.3     
  17 C17           -1.0637     7.7577     0.4224 C.2     
  18 N18            0.0117     8.4846     0.6094 N.2     
  19 C19           -0.3497     9.7840     0.6526 C.2     
  20 C20           -1.6950     9.8396     0.4851 C.2     
  21 C21           -2.5433    11.0850     0.4626 C.3     
  22 F22           -2.6400    11.5597    -0.8499 F       
  23 F23           -3.8219    10.7871     0.9461 F       
  24 F24           -1.9556    12.0642     1.2706 F       
  25 C25            0.5585    10.9410     0.8486 C.ar    
  26 C26            1.6699    10.8245     1.6810 C.ar    
  27 C27            2.5116    11.9037     1.8593 C.ar    
  28 C28            2.2532    13.0995     1.2139 C.ar    
  29 C29            1.1514    13.2208     0.3864 C.ar    
  30 C30            0.3063    12.1463     0.1964 C.ar    
  31 O31            1.9074    -0.0031    -1.7855 O.3     
  32 C32            2.9481    -0.7715    -2.3927 C.3     
  33 H33            1.7225    -2.6116    -1.6606 H       
  34 H34           -0.1002    -3.8565    -0.5810 H       
  35 H35           -1.9536    -2.6563     0.5020 H       
  36 H36           -1.9939    -0.2001     0.5230 H       
  37 H37           -1.9498     1.6345     0.3736 H       
  38 H38           -3.2801     3.7410    -0.1361 H       
  39 H39           -3.2288     6.1918     0.0390 H       
  40 H40            1.0256     6.0551     0.5721 H       
  41 H41            0.9621     3.6039     0.4058 H       
  42 H42            1.8722     9.8915     2.1860 H       
  43 H43            3.3732    11.8145     2.5043 H       
  44 H44            2.9140    13.9417     1.3568 H       
  45 H45            0.9542    14.1569    -0.1148 H       
  46 H46           -0.5512    12.2407    -0.4534 H       
  47 H47            3.6865    -0.1005    -2.8316 H       
  48 H48            3.4270    -1.3951    -1.6378 H       
  49 H49            2.5245    -1.4051    -3.1720 H       
@<TRIPOS>BOND
   1    1    2 1
   2    1    8 2
   3    1    9 am
   4    2    3 ar
   5    2    7 ar
   6    3    4 ar
   7    3   31 1
   8    4    5 ar
   9    4   33 1
  10    5    6 ar
  11    5   34 1
  12    6    7 ar
  13    6   35 1
  14    7   36 1
  15    9   10 1
  16    9   37 1
  17   10   11 ar
  18   10   15 ar
  19   11   12 ar
  20   11   38 1
  21   12   13 ar
  22   12   39 1
  23   13   14 ar
  24   13   17 1
  25   14   15 ar
  26   14   40 1
  27   15   41 1
  28   16   17 1
  29   16   20 1
  30   17   18 2
  31   18   19 1
  32   19   20 2
  33   19   25 1
  34   20   21 1
  35   21   22 1
  36   21   23 1
  37   21   24 1
  38   25   26 ar
  39   25   30 ar
  40   26   27 ar
  41   26   42 1
  42   27   28 ar
  43   27   43 1
  44   28   29 ar
  45   28   44 1
  46   29   30 ar
  47   29   45 1
  48   30   46 1
  49   31   32 1
  50   32   47 1
  51   32   48 1
  52   32   49 1

#	End of record

