#	Name: ASD01911939
#	Creating user name:	WinNT
#	Creation time:	15. 06. 2019 19:58

#	Modifying user name:	WinNT
#	Modification time:	15. 06. 2019 19:58

#	Program:	/corina/corina34_cracker 3.40 0067  02.08.2006

@<TRIPOS>MOLECULE
ASD01911939
  36   38    0    0    0
SMALL
NO_CHARGES


@<TRIPOS>ATOM
   1 C1            -1.0503    -0.4981    -2.0811 C.ar    
   2 C2            -1.0545     0.0501    -0.8025 C.ar    
   3 C3            -1.0141     1.4352    -0.6790 C.ar    
   4 N4            -0.9734     2.1764    -1.7740 N.ar    
   5 C5            -0.9709     1.6192    -2.9683 C.ar    
   6 N6            -1.0083     0.3113    -3.1265 N.ar    
   7 O7            -1.0974    -0.7468     0.2975 O.3     
   8 C8            -1.1387    -2.0920     0.1096 C.ar    
   9 C9             0.0155    -2.7785    -0.2317 C.ar    
  10 C10           -0.0271    -4.1600    -0.4242 C.ar    
  11 C11           -1.2335    -4.8451    -0.2721 C.ar    
  12 C12           -2.3839    -4.1508     0.0695 C.ar    
  13 C13           -2.3351    -2.7764     0.2652 C.ar    
  14 N14           -3.5939    -4.8357     0.2219 N.am    
  15 C15           -4.7556    -4.2302    -0.0949 C.2     
  16 C16           -6.0402    -4.9139     0.1643 C.ar    
  17 O17           -4.7468    -3.1217    -0.5938 O.2     
  18 C18           -7.2448    -4.2894    -0.1627 C.ar    
  19 C19            1.1636    -4.8728    -0.7774 C.1     
  20 C20           -8.4412    -4.9320     0.0813 C.ar    
  21 C21           -8.4498    -6.1931     0.6491 C.ar    
  22 C22           -7.2579    -6.8198     0.9771 C.ar    
  23 C23           -6.0533    -6.1891     0.7318 C.ar    
  24 F24           -7.2738    -8.0515     1.5318 F       
  25 N25            2.1082    -5.4382    -1.0575 N.1     
  26 H26           -1.0764    -1.5691    -2.2181 H       
  27 H27           -1.0162     1.8986     0.2965 H       
  28 H28           -0.9375     2.2525    -3.8424 H       
  29 H29            0.9471    -2.2448    -0.3488 H       
  30 H30           -1.2709    -5.9142    -0.4205 H       
  31 H31           -3.2328    -2.2381     0.5312 H       
  32 H32           -3.5970    -5.7465     0.5557 H       
  33 H33           -7.2405    -3.3045    -0.6058 H       
  34 H34           -9.3734    -4.4488    -0.1713 H       
  35 H35           -9.3892    -6.6915     0.8379 H       
  36 H36           -5.1246    -6.6775     0.9875 H       
@<TRIPOS>BOND
   1    1    2 ar
   2    1    6 ar
   3    1   26 1
   4    2    3 ar
   5    2    7 1
   6    3    4 ar
   7    3   27 1
   8    4    5 ar
   9    5    6 ar
  10    5   28 1
  11    7    8 1
  12    8    9 ar
  13    8   13 ar
  14    9   10 ar
  15    9   29 1
  16   10   11 ar
  17   10   19 1
  18   11   12 ar
  19   11   30 1
  20   12   13 ar
  21   12   14 1
  22   13   31 1
  23   14   15 am
  24   14   32 1
  25   15   16 1
  26   15   17 2
  27   16   18 ar
  28   16   23 ar
  29   18   20 ar
  30   18   33 1
  31   19   25 3
  32   20   21 ar
  33   20   34 1
  34   21   22 ar
  35   21   35 1
  36   22   23 ar
  37   22   24 1
  38   23   36 1

#	End of record

