#	Name: ASD00560003
#	Creating user name:	WinNT
#	Creation time:	15. 06. 2019 18:36

#	Modifying user name:	WinNT
#	Modification time:	15. 06. 2019 18:36

#	Program:	/corina/corina34_cracker 3.40 0067  02.08.2006

@<TRIPOS>MOLECULE
ASD00560003
  48   52    0    0    0
SMALL
NO_CHARGES


@<TRIPOS>ATOM
   1 C1            -0.0196     1.3679     0.2792 C.2     
   2 C2            -0.0089    -0.0301     0.2600 C.2     
   3 N3            -1.3210    -0.4235     0.1769 N.pl3   
   4 C4            -2.0892     0.7099     0.1476 C.2     
   5 N5            -1.3171     1.7653     0.2131 N.2     
   6 C6             1.2135     2.0532     0.3622 C.2     
   7 N7             2.3504     1.3250     0.4194 N.am    
   8 C8             2.2971    -0.0367     0.3965 C.2     
   9 N9             1.1565    -0.6851     0.3199 N.2     
  10 O10            1.2507     3.2721     0.3812 O.2     
  11 N11            3.4682    -0.7513     0.4550 N.pl3   
  12 S12           -3.8478     0.7427     0.0442 S.3     
  13 C13           -1.8104    -1.8035     0.1280 C.3     
  14 O14           -2.9551    -1.9491     0.9954 O.3     
  15 C15           -4.0904    -2.2281     0.1950 C.3     
  16 C16           -3.5309    -2.9934    -1.0337 C.3     
  17 C17           -2.2738    -2.1481    -1.3130 C.3     
  18 C18           -5.2048    -3.0361     0.8265 C.3     
  19 O19           -4.5340    -2.8959    -2.0510 O.3     
  20 P20           -6.0169    -3.4621    -1.6742 P.3     
  21 O21           -6.2951    -3.0610    -0.1260 O.3     
  22 O22           -7.1233    -2.7821    -2.6258 O.3     
  23 O23           -6.0506    -4.9336    -1.8291 O.2     
  24 O24           -2.6031    -0.9646    -2.0430 O.3     
  25 C25           -4.1317     2.4740     0.2075 C.ar    
  26 C26           -4.4598     3.2331    -0.9058 C.ar    
  27 C27           -4.6821     4.5916    -0.7752 C.ar    
  28 C28           -4.5779     5.1973     0.4630 C.ar    
  29 C29           -4.2511     4.4482     1.5788 C.ar    
  30 C30           -4.0326     3.0845     1.4585 C.ar    
  31 N31           -3.7023     2.3245     2.5861 N.pl3   
  32 H32            3.2085     1.7736     0.4768 H       
  33 H33            4.3177    -0.2865     0.5118 H       
  34 H34            3.4460    -1.7210     0.4396 H       
  35 H35           -1.0207    -2.4876     0.4387 H       
  36 H36           -4.5111    -1.2838    -0.1506 H       
  37 H37           -3.2822    -4.0280    -0.7971 H       
  38 H38           -1.5180    -2.7323    -1.8381 H       
  39 H39           -4.8617    -4.0512     1.0266 H       
  40 H40           -5.5299    -2.5622     1.7527 H       
  41 H41           -8.0274    -3.0778    -2.4515 H       
  42 H42           -1.8429    -0.4009    -2.2419 H       
  43 H43           -4.5414     2.7633    -1.8749 H       
  44 H44           -4.9375     5.1812    -1.6432 H       
  45 H45           -4.7518     6.2589     0.5594 H       
  46 H46           -4.1706     4.9248     2.5446 H       
  47 H47           -3.6260     2.7517     3.4536 H       
  48 H48           -3.5498     1.3704     2.5003 H       
@<TRIPOS>BOND
   1    1    2 2
   2    1    6 1
   3    1    5 1
   4    2    3 1
   5    2    9 1
   6    3    4 1
   7    3   13 1
   8    4    5 2
   9    4   12 1
  10    6    7 am
  11    6   10 2
  12    7    8 1
  13    7   32 1
  14    8    9 2
  15    8   11 1
  16   11   33 1
  17   11   34 1
  18   12   25 1
  19   13   14 1
  20   13   17 1
  21   13   35 1
  22   14   15 1
  23   15   16 1
  24   15   18 1
  25   15   36 1
  26   16   17 1
  27   16   19 1
  28   16   37 1
  29   17   24 1
  30   17   38 1
  31   18   21 1
  32   18   39 1
  33   18   40 1
  34   19   20 1
  35   20   21 1
  36   20   22 1
  37   20   23 2
  38   22   41 1
  39   24   42 1
  40   25   26 ar
  41   25   30 ar
  42   26   27 ar
  43   26   43 1
  44   27   28 ar
  45   27   44 1
  46   28   29 ar
  47   28   45 1
  48   29   30 ar
  49   29   46 1
  50   30   31 1
  51   31   47 1
  52   31   48 1

#	End of record

