#	Name: ASD01720002
#	Creating user name:	WinNT
#	Creation time:	15. 06. 2019 19:22

#	Modifying user name:	WinNT
#	Modification time:	15. 06. 2019 19:22

#	Program:	/corina/corina34_cracker 3.40 0067  02.08.2006

@<TRIPOS>MOLECULE
ASD01720002
  21   20    0    0    0
SMALL
NO_CHARGES


@<TRIPOS>ATOM
   1 C1            -0.0187     1.5258     0.0104 C.3     
   2 C2             0.0021    -0.0041     0.0020 C.3     
   3 C3            -1.4333    -0.5336     0.0129 C.3     
   4 C4             1.3951     2.0474    -0.0003 C.2     
   5 O5             1.7998     2.6765    -0.9492 O.2     
   6 O6             2.2048     1.8131     1.0444 O.3     
   7 C7             0.7074    -0.4901    -1.2379 C.2     
   8 O8             1.1483     0.3055    -2.0332 O.2     
   9 O9             0.8459    -1.8068    -1.4587 O.3     
  10 C10           -1.4136    -2.0361     0.1285 C.2     
  11 O11           -0.3596    -2.6231     0.1953 O.2     
  12 O12           -2.5669    -2.7222     0.1572 O.3     
  13 O13           -0.7098     1.9991    -1.1473 O.3     
  14 H14           -0.5289     1.8773     0.9072 H       
  15 H15            0.5293    -0.3651     0.8851 H       
  16 H16           -1.9701    -0.1109     0.8621 H       
  17 H17           -1.9334    -0.2470    -0.9122 H       
  18 H18            3.1030     2.1677     0.9918 H       
  19 H19            1.3056    -2.0703    -2.2676 H       
  20 H20           -2.5036    -3.6842     0.2322 H       
  21 H21           -0.3104     1.7238    -1.9838 H       
@<TRIPOS>BOND
   1    1    2 1
   2    1    4 1
   3    1   13 1
   4    1   14 1
   5    2    3 1
   6    2    7 1
   7    2   15 1
   8    3   10 1
   9    3   16 1
  10    3   17 1
  11    4    5 2
  12    4    6 1
  13    6   18 1
  14    7    8 2
  15    7    9 1
  16    9   19 1
  17   10   11 2
  18   10   12 1
  19   12   20 1
  20   13   21 1

#	End of record

