#	Name: ASD03091082
#	Creating user name:	WinNT
#	Creation time:	15. 06. 2019 20:30

#	Modifying user name:	WinNT
#	Modification time:	15. 06. 2019 20:30

#	Program:	/corina/corina34_cracker 3.40 0067  02.08.2006

@<TRIPOS>MOLECULE
ASD03091082
  65   70    0    0    0
SMALL
NO_CHARGES


@<TRIPOS>ATOM
   1 C1            -0.0665     1.4830    -0.0394 C.3     
   2 N2             0.1035     0.0476     0.1997 N.am    
   3 C3             0.2830    -0.4129     1.4762 C.2     
   4 N4             0.4404    -1.6790     1.7626 N.2     
   5 C5             0.4361    -2.6281     0.8046 C.ar    
   6 C6             0.2568    -2.2445    -0.5441 C.ar    
   7 C7             0.0765    -0.8158    -0.8422 C.2     
   8 C8             0.3002     0.5670     2.5827 C.ar    
   9 O9            -0.0822    -0.4237    -1.9836 O.2     
  10 C10            0.6054    -3.9806     1.1170 C.ar    
  11 C11            0.5963    -4.9156     0.1224 C.ar    
  12 C12            0.4196    -4.5421    -1.2101 C.ar    
  13 C13            0.2502    -3.2100    -1.5481 C.ar    
  14 N14            0.4146    -5.5184    -2.2101 N.3     
  15 C15            1.0374    -5.0138    -3.4419 C.3     
  16 C16            1.8553    -6.1088    -4.1101 C.3     
  17 C17            1.0062    -7.1672    -4.7848 C.3     
  18 N18           -0.4235    -6.8301    -4.7295 N.3     
  19 C19           -0.9742    -7.1889    -3.4137 C.3     
  20 C20           -0.9491    -5.9917    -2.4762 C.3     
  21 C21           -0.7048    -5.4899    -5.1977 C.3     
  22 C22           -0.0373    -4.4281    -4.3393 C.3     
  23 C23            1.3067     2.1533    -0.1165 C.3     
  24 C24            2.2305     1.4985    -1.1455 C.3     
  25 O25            2.2552     0.0857    -0.9326 O.3     
  26 C26            1.2387     3.6849    -0.2362 C.3     
  27 C27            2.4343     3.7349     0.7296 C.3     
  28 C28            1.9663     2.3660     1.2563 C.3     
  29 C29           -0.7648     1.4534     2.7504 C.ar    
  30 C30           -0.7431     2.3660     3.7851 C.ar    
  31 C31            0.3312     2.4044     4.6554 C.ar    
  32 C32            1.3917     1.5283     4.4950 C.ar    
  33 C33            1.3790     0.6060     3.4677 C.ar    
  34 Cl34           2.7358     1.5846     5.5922 Cl      
  35 H35           -0.5979     1.6343    -0.9790 H       
  36 H36           -0.6398     1.9220     0.7771 H       
  37 H37            0.7436    -4.2851     2.1440 H       
  38 H38            0.7279    -5.9585     0.3703 H       
  39 H39            0.1137    -2.9225    -2.5802 H       
  40 H40            1.7143    -4.2039    -3.1700 H       
  41 H41            2.5049    -5.6531    -4.8575 H       
  42 H42            2.4784    -6.5893    -3.3558 H       
  43 H43            1.3107    -7.2563    -5.8276 H       
  44 H44            1.1660    -8.1230    -4.2858 H       
  45 H45           -2.0028    -7.5282    -3.5353 H       
  46 H46           -0.3795    -7.9946    -2.9831 H       
  47 H47           -1.4158    -6.2727    -1.5321 H       
  48 H48           -1.5232    -5.1806    -2.9240 H       
  49 H49           -0.3479    -5.3915    -6.2229 H       
  50 H50           -1.7829    -5.3296    -5.1836 H       
  51 H51           -0.7936    -3.9472    -3.7188 H       
  52 H52            0.4138    -3.6788    -4.9897 H       
  53 H53            1.8623     1.7083    -2.1497 H       
  54 H54            3.2380     1.9000    -1.0367 H       
  55 H55            2.8224    -0.3953    -1.5507 H       
  56 H56            1.4686     4.0555    -1.2352 H       
  57 H57            0.3260     4.1150     0.1762 H       
  58 H58            3.4019     3.7009     0.2288 H       
  59 H59            2.3664     4.5341     1.4676 H       
  60 H60            1.2523     2.4348     2.0770 H       
  61 H61            2.7835     1.6745     1.4617 H       
  62 H62           -1.6041     1.4253     2.0713 H       
  63 H63           -1.5669     3.0522     3.9155 H       
  64 H64            0.3432     3.1209     5.4634 H       
  65 H65            2.2061    -0.0772     3.3433 H       
@<TRIPOS>BOND
   1    1    2 1
   2    1   23 1
   3    1   35 1
   4    1   36 1
   5    2    3 1
   6    2    7 am
   7    3    4 2
   8    3    8 1
   9    4    5 1
  10    5    6 ar
  11    5   10 ar
  12    6    7 1
  13    6   13 ar
  14    7    9 2
  15    8   29 ar
  16    8   33 ar
  17   10   11 ar
  18   10   37 1
  19   11   12 ar
  20   11   38 1
  21   12   13 ar
  22   12   14 1
  23   13   39 1
  24   14   15 1
  25   14   20 1
  26   15   16 1
  27   15   22 1
  28   15   40 1
  29   16   17 1
  30   16   41 1
  31   16   42 1
  32   17   18 1
  33   17   43 1
  34   17   44 1
  35   18   19 1
  36   18   21 1
  37   19   20 1
  38   19   45 1
  39   19   46 1
  40   20   47 1
  41   20   48 1
  42   21   22 1
  43   21   49 1
  44   21   50 1
  45   22   51 1
  46   22   52 1
  47   23   24 1
  48   23   26 1
  49   23   28 1
  50   24   25 1
  51   24   53 1
  52   24   54 1
  53   25   55 1
  54   26   27 1
  55   26   56 1
  56   26   57 1
  57   27   28 1
  58   27   58 1
  59   27   59 1
  60   28   60 1
  61   28   61 1
  62   29   30 ar
  63   29   62 1
  64   30   31 ar
  65   30   63 1
  66   31   32 ar
  67   31   64 1
  68   32   33 ar
  69   32   34 1
  70   33   65 1

#	End of record

