#	Name: ASD01148105
#	Creating user name:	WinNT
#	Creation time:	15. 06. 2019 19:02

#	Modifying user name:	WinNT
#	Modification time:	15. 06. 2019 19:02

#	Program:	/corina/corina34_cracker 3.40 0067  02.08.2006

@<TRIPOS>MOLECULE
ASD01148105
  45   46    0    0    0
SMALL
NO_CHARGES


@<TRIPOS>ATOM
   1 C1            -0.0166     1.3744     0.0096 C.ar    
   2 C2             0.0021    -0.0041     0.0020 C.ar    
   3 C3             1.1756     2.0865     0.0020 C.ar    
   4 C4             2.3900     1.4131    -0.0132 C.ar    
   5 C5             2.4156     0.0348    -0.0209 C.ar    
   6 C6             1.2201    -0.6834    -0.0133 C.ar    
   7 C7             1.2439    -2.1652    -0.0211 C.ar    
   8 C8             0.0465    -2.8818    -0.0134 C.ar    
   9 C9            -1.3323     2.1092     0.0198 C.3     
  10 C10           -2.1352     1.7350    -1.2277 C.3     
  11 C11           -2.1233     1.7215     1.2707 C.3     
  12 C12            3.6814     2.1900    -0.0219 C.3     
  13 C13            4.5023     1.8285     1.2176 C.3     
  14 C14            4.4779     1.8412    -1.2807 C.3     
  15 O15            1.1538     3.4447     0.0091 O.3     
  16 C16            2.4636    -2.8428    -0.0417 C.ar    
  17 C17            2.4868    -4.2189    -0.0489 C.ar    
  18 C18            1.2884    -4.9375    -0.0355 C.ar    
  19 C19            0.0675    -4.2579    -0.0206 C.ar    
  20 C20            1.3121    -6.4141    -0.0432 C.2     
  21 N21            0.1560    -7.1067    -0.0303 N.am    
  22 O22            2.3745    -7.0049    -0.0612 O.2     
  23 H23           -0.9254    -0.5573     0.0083 H       
  24 H24            3.3604    -0.4883    -0.0331 H       
  25 H25           -0.8970    -2.3564    -0.0015 H       
  26 H26           -1.1483     3.1836     0.0248 H       
  27 H27           -2.3191     0.6607    -1.2326 H       
  28 H28           -3.0867     2.2666    -1.2203 H       
  29 H29           -1.5716     2.0113    -2.1188 H       
  30 H30           -1.5513     1.9880     2.1595 H       
  31 H31           -3.0749     2.2530     1.2781 H       
  32 H32           -2.3073     0.6471     1.2658 H       
  33 H33            3.4630     3.2578    -0.0143 H       
  34 H34            4.7206     0.7606     1.2101 H       
  35 H35            5.4363     2.3904     1.2113 H       
  36 H36            3.9348     2.0770     2.1144 H       
  37 H37            3.8931     2.0987    -2.1638 H       
  38 H38            5.4119     2.4030    -1.2870 H       
  39 H39            4.6963     0.7733    -1.2883 H       
  40 H40            1.1557     3.8335     0.8945 H       
  41 H41            3.3896    -2.2873    -0.0524 H       
  42 H42            3.4308    -4.7432    -0.0653 H       
  43 H43           -0.8593    -4.8124    -0.0102 H       
  44 H44           -0.6916    -6.6353    -0.0159 H       
  45 H45            0.1716    -8.0766    -0.0353 H       
@<TRIPOS>BOND
   1    1    2 ar
   2    1    3 ar
   3    1    9 1
   4    2    6 ar
   5    2   23 1
   6    3    4 ar
   7    3   15 1
   8    4    5 ar
   9    4   12 1
  10    5    6 ar
  11    5   24 1
  12    6    7 1
  13    7    8 ar
  14    7   16 ar
  15    8   19 ar
  16    8   25 1
  17    9   10 1
  18    9   11 1
  19    9   26 1
  20   10   27 1
  21   10   28 1
  22   10   29 1
  23   11   30 1
  24   11   31 1
  25   11   32 1
  26   12   13 1
  27   12   14 1
  28   12   33 1
  29   13   34 1
  30   13   35 1
  31   13   36 1
  32   14   37 1
  33   14   38 1
  34   14   39 1
  35   15   40 1
  36   16   17 ar
  37   16   41 1
  38   17   18 ar
  39   17   42 1
  40   18   19 ar
  41   18   20 1
  42   19   43 1
  43   20   21 am
  44   20   22 2
  45   21   44 1
  46   21   45 1

#	End of record

