#	Name: ASD01841038
#	Creating user name:	WinNT
#	Creation time:	15. 06. 2019 19:38

#	Modifying user name:	WinNT
#	Modification time:	15. 06. 2019 19:38

#	Program:	/corina/corina34_cracker 3.40 0067  02.08.2006

@<TRIPOS>MOLECULE
ASD01841038
  34   36    0    0    0
SMALL
NO_CHARGES


@<TRIPOS>ATOM
   1 C1            -0.0180     1.4767     0.0102 C.2     
   2 C2             0.0021    -0.0041     0.0020 C.ar    
   3 O3             1.0259     2.0985     0.0035 O.2     
   4 N4            -1.1942     2.1346     0.0193 N.am    
   5 S5            -2.6698     4.5037     0.0392 S.3     
   6 C6            -1.2130     3.5196     0.0269 C.2     
   7 N7            -0.1661     4.2690     0.0260 N.2     
   8 C8            -0.3466     5.6050     0.0342 C.ar    
   9 C9            -1.6946     5.9713     0.0425 C.ar    
  10 C10           -2.0608     7.3163     0.0512 C.ar    
  11 C11           -1.0962     8.2989     0.0511 C.ar    
  12 C12            0.2468     7.9530     0.0424 C.ar    
  13 C13            0.6285     6.6303     0.0344 C.ar    
  14 C14           -3.5190     7.6966     0.0602 C.3     
  15 O15            1.9490     6.3077     0.0263 O.3     
  16 C16            2.8815     7.3905     0.0270 C.3     
  17 C17            1.2113    -0.7063    -0.0133 C.ar    
  18 C18            1.1836    -2.0874    -0.0205 C.ar    
  19 N19            0.0392    -2.7416    -0.0136 N.ar    
  20 C20           -1.1225    -2.1188     0.0008 C.ar    
  21 C21           -1.1876    -0.7390     0.0153 C.ar    
  22 H22           -2.0276     1.6383     0.0206 H       
  23 H23           -1.3856     9.3394     0.0574 H       
  24 H24            0.9994     8.7276     0.0416 H       
  25 H25           -3.8656     7.7831     1.0900 H       
  26 H26           -3.6484     8.6521    -0.4482 H       
  27 H27           -4.0977     6.9298    -0.4548 H       
  28 H28            2.7248     8.0054    -0.8592 H       
  29 H29            2.7335     7.9968     0.9207 H       
  30 H30            3.8973     6.9953     0.0201 H       
  31 H31            2.1526    -0.1769    -0.0198 H       
  32 H32            2.1122    -2.6388    -0.0323 H       
  33 H33           -2.0358    -2.6952     0.0057 H       
  34 H34           -2.1429    -0.2354     0.0274 H       
@<TRIPOS>BOND
   1    1    2 1
   2    1    3 2
   3    1    4 am
   4    2   17 ar
   5    2   21 ar
   6    4    6 1
   7    4   22 1
   8    5    6 1
   9    5    9 1
  10    6    7 2
  11    7    8 1
  12    8    9 ar
  13    8   13 ar
  14    9   10 ar
  15   10   11 ar
  16   10   14 1
  17   11   12 ar
  18   11   23 1
  19   12   13 ar
  20   12   24 1
  21   13   15 1
  22   14   25 1
  23   14   26 1
  24   14   27 1
  25   15   16 1
  26   16   28 1
  27   16   29 1
  28   16   30 1
  29   17   18 ar
  30   17   31 1
  31   18   19 ar
  32   18   32 1
  33   19   20 ar
  34   20   21 ar
  35   20   33 1
  36   21   34 1

#	End of record

