#	Name: ASD01910246
#	Creating user name:	WinNT
#	Creation time:	15. 06. 2019 19:55

#	Modifying user name:	WinNT
#	Modification time:	15. 06. 2019 19:55

#	Program:	/corina/corina34_cracker 3.40 0067  02.08.2006

@<TRIPOS>MOLECULE
ASD01910246
  40   43    0    0    0
SMALL
NO_CHARGES


@<TRIPOS>ATOM
   1 C1             2.6876     0.1233    -0.3483 C.2     
   2 C2             3.2163     1.5205    -0.1498 C.3     
   3 C3             3.1468     2.2857    -1.4733 C.3     
   4 C4             3.7139     3.6941    -1.2806 C.3     
   5 C5             2.8698     4.4427    -0.2444 C.3     
   6 N6             2.8120     3.6419     0.9861 N.am    
   7 C7             2.3666     2.2445     0.8993 C.3     
   8 C8             3.1608     4.1790     2.1720 C.2     
   9 C9             2.9792     3.4062     3.4122 C.2     
  10 O10            3.6255     5.3020     2.2178 O.2     
  11 N11            3.3454    -0.9923    -0.1534 N.2     
  12 C12            2.4766    -1.9837    -0.4549 C.2     
  13 N13            1.3531    -1.4172    -0.8116 N.2     
  14 O14            1.4573    -0.2103    -0.7507 O.3     
  15 C15            2.7474    -3.4413    -0.3933 C.ar    
  16 C16            1.7499    -4.3524    -0.7352 C.ar    
  17 C17            2.0060    -5.7067    -0.6770 C.ar    
  18 C18            3.2530    -6.1615    -0.2792 C.ar    
  19 C19            4.2477    -5.2591     0.0616 C.ar    
  20 C20            4.0017    -3.9030     0.0012 C.ar    
  21 F21            3.4996    -7.4887    -0.2232 F       
  22 N22            3.8218     3.3610     4.4085 N.2     
  23 C23            3.4698     2.6126     5.4206 C.2     
  24 C24            2.2872     1.9887     5.3019 C.2     
  25 S25            1.5868     2.3988     3.7960 S.3     
  26 H26            4.2512     1.4731     0.1891 H       
  27 H27            3.7307     1.7593    -2.2283 H       
  28 H28            2.1089     2.3537    -1.7994 H       
  29 H29            4.7440     3.6267    -0.9307 H       
  30 H30            3.6856     4.2306    -2.2290 H       
  31 H31            3.3265     5.4090    -0.0303 H       
  32 H32            1.8618     4.5904    -0.6319 H       
  33 H33            1.3175     2.2129     0.6050 H       
  34 H34            2.4912     1.7604     1.8679 H       
  35 H35            0.7776    -3.9988    -1.0450 H       
  36 H36            1.2334    -6.4135    -0.9415 H       
  37 H37            5.2182    -5.6178     0.3711 H       
  38 H38            4.7775    -3.2002     0.2670 H       
  39 H39            4.0913     2.5028     6.2969 H       
  40 H40            1.8465     1.3356     6.0407 H       
@<TRIPOS>BOND
   1    1   11 2
   2    1    2 1
   3    1   14 1
   4    2    3 1
   5    2    7 1
   6    2   26 1
   7    3    4 1
   8    3   27 1
   9    3   28 1
  10    4    5 1
  11    4   29 1
  12    4   30 1
  13    5    6 1
  14    5   31 1
  15    5   32 1
  16    6    7 1
  17    6    8 am
  18    7   33 1
  19    7   34 1
  20    8    9 1
  21    8   10 2
  22    9   22 2
  23    9   25 1
  24   11   12 1
  25   12   13 2
  26   12   15 1
  27   13   14 1
  28   15   16 ar
  29   15   20 ar
  30   16   17 ar
  31   16   35 1
  32   17   18 ar
  33   17   36 1
  34   18   19 ar
  35   18   21 1
  36   19   20 ar
  37   19   37 1
  38   20   38 1
  39   22   23 1
  40   23   24 2
  41   23   39 1
  42   24   25 1
  43   24   40 1

#	End of record

