#	Name: ASD01680131
#	Creating user name:	WinNT
#	Creation time:	15. 06. 2019 19:22

#	Modifying user name:	WinNT
#	Modification time:	15. 06. 2019 19:22

#	Program:	/corina/corina34_cracker 3.40 0067  02.08.2006

@<TRIPOS>MOLECULE
ASD01680131
  69   71    0    0    0
SMALL
NO_CHARGES


@<TRIPOS>ATOM
   1 N1             0.1049     1.4829     0.1046 N.am    
   2 C2            -0.0215     0.0222    -0.0047 C.3     
   3 C3             1.4011    -0.5487    -0.1832 C.3     
   4 C4             2.1965     0.6654    -0.7315 C.3     
   5 C5             1.5330     1.8408     0.0286 C.3     
   6 C6            -0.9162     2.3513     0.2452 C.2     
   7 O7            -2.0632     1.9529     0.1996 O.2     
   8 O8            -0.6652     3.6602     0.4361 O.3     
   9 C9            -0.6527    -0.5424     1.2696 C.3     
  10 N10           -0.6251    -2.0103     1.2209 N.3     
  11 C11            0.1246    -0.0649     2.4692 C.ar    
  12 C12           -0.5066     0.7008     3.4315 C.ar    
  13 C13            0.2173     1.1346     4.5314 C.ar    
  14 C14            1.5549     0.7804     4.6226 C.ar    
  15 C15            2.1179     0.0124     3.6213 C.ar    
  16 N16            1.3973    -0.3869     2.5914 N.ar    
  17 O17            3.5831     0.5602    -0.4023 O.3     
  18 C18            4.4545     1.1747    -1.3537 C.3     
  19 C19            5.8842     1.0042    -0.9087 C.2     
  20 N20            6.8870     1.5070    -1.6557 N.am    
  21 O21            6.1324     0.4146     0.1217 O.2     
  22 C22            8.2769     1.3413    -1.2232 C.3     
  23 C23            9.2099     1.9992    -2.2417 C.3     
  24 N24            8.8193     3.3987    -2.4291 N.am    
  25 S25            8.9623     4.1058    -3.9197 S.o2    
  26 O26            8.5240     5.4422    -3.7171 O.2     
  27 O27           10.2982     3.8247    -4.3142 O.2     
  28 C28            7.7866     3.2018    -4.9642 C.3     
  29 C29           10.6285     1.9368    -1.7371 C.2     
  30 O30           11.2496     2.9567    -1.5528 O.2     
  31 O31           11.2021     0.7482    -1.4923 O.3     
  32 C32           -1.8133     4.5375     0.5795 C.3     
  33 C33           -1.3409     5.9538     0.7837 C.ar    
  34 C34           -1.1380     6.7788    -0.3067 C.ar    
  35 C35           -0.7046     8.0780    -0.1194 C.ar    
  36 C36           -0.4745     8.5524     1.1585 C.ar    
  37 C37           -0.6782     7.7277     2.2490 C.ar    
  38 C38           -1.1158     6.4298     2.0619 C.ar    
  39 H39           -0.6345    -0.2332    -0.8690 H       
  40 H40            1.8081    -0.8761     0.7735 H       
  41 H41            1.4008    -1.3667    -0.9036 H       
  42 H42            2.0588     0.7688    -1.8078 H       
  43 H43            1.6619     2.7712    -0.5244 H       
  44 H44            1.9550     1.9318     1.0295 H       
  45 H45           -1.6849    -0.2007     1.3460 H       
  46 H46            0.3216    -2.3520     1.1500 H       
  47 H47           -1.0939    -2.4075     2.0212 H       
  48 H48           -1.5503     0.9581     3.3277 H       
  49 H49           -0.2493     1.7344     5.2988 H       
  50 H50            2.1493     1.1011     5.4654 H       
  51 H51            3.1590    -0.2677     3.6849 H       
  52 H52            4.3186     0.7045    -2.3276 H       
  53 H53            4.2211     2.2368    -1.4272 H       
  54 H54            6.6885     1.9786    -2.4798 H       
  55 H55            8.4128     1.8114    -0.2492 H       
  56 H56            8.5103     0.2791    -1.1496 H       
  57 H57            9.1391     1.4717    -3.1930 H       
  58 H58            8.4770     3.9111    -1.6800 H       
  59 H59            6.7812     3.3100    -4.5572 H       
  60 H60            7.8143     3.6058    -5.9761 H       
  61 H61            8.0577     2.1462    -4.9868 H       
  62 H62           12.1137     0.7587    -1.1698 H       
  63 H63           -2.4254     4.4849    -0.3209 H       
  64 H64           -2.4048     4.2241     1.4397 H       
  65 H65           -1.3178     6.4082    -1.3051 H       
  66 H66           -0.5454     8.7224    -0.9714 H       
  67 H67           -0.1351     9.5672     1.3048 H       
  68 H68           -0.4981     8.0982     3.2473 H       
  69 H69           -1.2785     5.7866     2.9141 H       
@<TRIPOS>BOND
   1    1    2 1
   2    1    5 1
   3    1    6 am
   4    2    3 1
   5    2    9 1
   6    2   39 1
   7    3    4 1
   8    3   40 1
   9    3   41 1
  10    4    5 1
  11    4   17 1
  12    4   42 1
  13    5   43 1
  14    5   44 1
  15    6    7 2
  16    6    8 1
  17    8   32 1
  18    9   10 1
  19    9   11 1
  20    9   45 1
  21   10   46 1
  22   10   47 1
  23   11   12 ar
  24   11   16 ar
  25   12   13 ar
  26   12   48 1
  27   13   14 ar
  28   13   49 1
  29   14   15 ar
  30   14   50 1
  31   15   16 ar
  32   15   51 1
  33   17   18 1
  34   18   19 1
  35   18   52 1
  36   18   53 1
  37   19   20 am
  38   19   21 2
  39   20   22 1
  40   20   54 1
  41   22   23 1
  42   22   55 1
  43   22   56 1
  44   23   24 1
  45   23   29 1
  46   23   57 1
  47   24   25 am
  48   24   58 1
  49   25   26 2
  50   25   27 2
  51   25   28 1
  52   28   59 1
  53   28   60 1
  54   28   61 1
  55   29   30 2
  56   29   31 1
  57   31   62 1
  58   32   33 1
  59   32   63 1
  60   32   64 1
  61   33   34 ar
  62   33   38 ar
  63   34   35 ar
  64   34   65 1
  65   35   36 ar
  66   35   66 1
  67   36   37 ar
  68   36   67 1
  69   37   38 ar
  70   37   68 1
  71   38   69 1

#	End of record

