#	Name: ASD01208219
#	Creating user name:	WinNT
#	Creation time:	15. 06. 2019 19:09

#	Modifying user name:	WinNT
#	Modification time:	15. 06. 2019 19:09

#	Program:	/corina/corina34_cracker 3.40 0067  02.08.2006

@<TRIPOS>MOLECULE
ASD01208219
  63   66    0    0    0
SMALL
NO_CHARGES


@<TRIPOS>ATOM
   1 C1             0.5848     1.6494    -3.0831 C.2     
   2 C2             0.5056     0.2214    -2.7263 C.ar    
   3 C3             1.6214    -0.4404    -2.1889 C.ar    
   4 C4             1.5044    -1.7661    -1.8713 C.ar    
   5 C5             0.2859    -2.4183    -2.0895 C.ar    
   6 N6            -0.7553    -1.7652    -2.6005 N.ar    
   7 C7            -0.6829    -0.4902    -2.9132 C.ar    
   8 O8             1.6205     2.2617    -2.9127 O.2     
   9 O9            -0.4898     2.2746    -3.6034 O.3     
  10 N10            1.1383    -4.6427    -1.2192 N.pl3   
  11 C11            0.1538    -3.8459    -1.7499 C.2     
  12 C12           -0.9785    -4.6132    -1.9087 C.2     
  13 C13           -0.6771    -5.9031    -1.4656 C.2     
  14 C14            0.6327    -5.9022    -1.0441 C.2     
  15 C15            1.3675    -7.0621    -0.4975 C.ar    
  16 C16            0.7306    -8.2977    -0.3710 C.ar    
  17 C17            1.4228    -9.3821     0.1412 C.ar    
  18 C18            2.7479    -9.2419     0.5286 C.ar    
  19 C19            3.3849    -8.0153     0.4051 C.ar    
  20 C20            2.7015    -6.9267    -0.1117 C.ar    
  21 O21            4.6824    -7.8831     0.7868 O.3     
  22 C22            4.9388    -7.2826     1.9785 C.ar    
  23 C23            6.2491    -7.0963     2.3951 C.ar    
  24 C24            6.5070    -6.4856     3.6070 C.ar    
  25 C25            5.4608    -6.0600     4.4047 C.ar    
  26 C26            4.1541    -6.2445     3.9918 C.ar    
  27 C27            3.8908    -6.8495     2.7782 C.ar    
  28 S28            5.7932    -5.2819     5.9502 S.o2    
  29 O29            4.6342    -5.5421     6.7300 O.2     
  30 O30            7.0633    -5.7914     6.3330 O.2     
  31 C31            5.9094    -3.5159     5.5521 C.3     
  32 O32            0.8034   -10.5854     0.2652 O.3     
  33 C33            1.6006   -11.6820     0.7169 C.3     
  34 C34            0.9780   -12.9957     0.2398 C.3     
  35 C35            1.6620   -11.6722     2.2456 C.3     
  36 O36           -0.2960   -13.1728     0.8624 O.3     
  37 C37           -0.9661   -14.3765     0.4828 C.3     
  38 H38            2.5514     0.0852    -2.0302 H       
  39 H39            2.3442    -2.3038    -1.4566 H       
  40 H40           -1.5481     0.0108    -3.3217 H       
  41 H41           -0.3897     3.2113    -3.8217 H       
  42 H42            2.0421    -4.3610    -1.0078 H       
  43 H43           -1.9266    -4.2787    -2.3033 H       
  44 H44           -1.3500    -6.7478    -1.4557 H       
  45 H45           -0.3008    -8.4077    -0.6719 H       
  46 H46            3.2848   -10.0897     0.9278 H       
  47 H47            3.1994    -5.9736    -0.2121 H       
  48 H48            7.0667    -7.4288     1.7727 H       
  49 H49            7.5267    -6.3406     3.9320 H       
  50 H50            3.3387    -5.9116     4.6168 H       
  51 H51            2.8701    -6.9893     2.4541 H       
  52 H52            4.9672    -3.1780     5.1207 H       
  53 H53            6.1159    -2.9514     6.4613 H       
  54 H54            6.7149    -3.3573     4.8351 H       
  55 H55            2.6084   -11.5895     0.3122 H       
  56 H56            0.8526   -12.9663    -0.8425 H       
  57 H57            1.6317   -13.8258     0.5075 H       
  58 H58            2.2700   -12.5087     2.5902 H       
  59 H59            2.1055   -10.7363     2.5855 H       
  60 H60            0.6541   -11.7647     2.6503 H       
  61 H61           -1.9248   -14.4365     0.9979 H       
  62 H62           -1.1318   -14.3758    -0.5945 H       
  63 H63           -0.3527   -15.2353     0.7555 H       
@<TRIPOS>BOND
   1    1    2 1
   2    1    8 2
   3    1    9 1
   4    2    3 ar
   5    2    7 ar
   6    3    4 ar
   7    3   38 1
   8    4    5 ar
   9    4   39 1
  10    5    6 ar
  11    5   11 1
  12    6    7 ar
  13    7   40 1
  14    9   41 1
  15   10   11 1
  16   10   14 1
  17   10   42 1
  18   11   12 2
  19   12   13 1
  20   12   43 1
  21   13   14 2
  22   13   44 1
  23   14   15 1
  24   15   16 ar
  25   15   20 ar
  26   16   17 ar
  27   16   45 1
  28   17   18 ar
  29   17   32 1
  30   18   19 ar
  31   18   46 1
  32   19   20 ar
  33   19   21 1
  34   20   47 1
  35   21   22 1
  36   22   23 ar
  37   22   27 ar
  38   23   24 ar
  39   23   48 1
  40   24   25 ar
  41   24   49 1
  42   25   26 ar
  43   25   28 1
  44   26   27 ar
  45   26   50 1
  46   27   51 1
  47   28   29 2
  48   28   30 2
  49   28   31 1
  50   31   52 1
  51   31   53 1
  52   31   54 1
  53   32   33 1
  54   33   34 1
  55   33   35 1
  56   33   55 1
  57   34   36 1
  58   34   56 1
  59   34   57 1
  60   35   58 1
  61   35   59 1
  62   35   60 1
  63   36   37 1
  64   37   61 1
  65   37   62 1
  66   37   63 1

#	End of record

