#	Name: ASD03731289
#	Creating user name:	WinNT
#	Creation time:	15. 06. 2019 20:45

#	Modifying user name:	WinNT
#	Modification time:	15. 06. 2019 20:45

#	Program:	/corina/corina34_cracker 3.40 0067  02.08.2006

@<TRIPOS>MOLECULE
ASD03731289
  54   59    0    0    0
SMALL
NO_CHARGES


@<TRIPOS>ATOM
   1 N1            -0.0649     1.3600    -0.1937 N.am    
   2 C2            -0.0293     0.0128    -0.2102 C.2     
   3 O3             1.0190    -0.5651    -0.4232 O.2     
   4 N4            -1.1558    -0.6938     0.0094 N.am    
   5 C5            -1.1402    -2.0885    -0.1039 C.ar    
   6 C6            -0.0175    -2.8059     0.2875 C.ar    
   7 C7            -0.0054    -4.1824     0.1749 C.ar    
   8 C8            -1.1097    -4.8462    -0.3270 C.ar    
   9 C9            -2.2293    -4.1348    -0.7176 C.ar    
  10 C10           -2.2496    -2.7586    -0.6026 C.ar    
  11 C11            1.1596     2.1281    -0.4323 C.3     
  12 C12            0.8459     3.6238    -0.3593 C.3     
  13 O13            7.0097     2.2093    -3.7794 O.3     
  14 C14            8.3065     2.5816    -4.2822 C.3     
  15 O15            8.1144     3.9251    -4.7628 O.3     
  16 C16            7.0895     4.4366    -4.0193 C.ar    
  17 C17            6.4100     3.3809    -3.4157 C.ar    
  18 C18            6.6752     5.7388    -3.8044 C.ar    
  19 C19            5.5797     6.0046    -2.9884 C.ar    
  20 C20            4.9039     4.9413    -2.3975 C.ar    
  21 C21            5.3183     3.6422    -2.6049 C.ar    
  22 O22            5.0246     7.1996    -2.6361 O.3     
  23 C23            3.7681     5.5389    -1.6110 C.3     
  24 C24            3.6895     6.9764    -2.1430 C.3     
  25 N25            2.0704     4.3918    -0.5980 N.am    
  26 C26            2.4805     4.7944    -1.8173 C.2     
  27 C27            4.0162     5.5023    -0.1322 C.ar    
  28 C28            5.0128     5.9991     0.6779 C.ar    
  29 C29            4.9594     5.7969     2.0455 C.ar    
  30 C30            3.9034     5.0942     2.5967 C.ar    
  31 C31            2.9032     4.5938     1.7894 C.ar    
  32 C32            2.9485     4.7929     0.4117 C.ar    
  33 O33            1.9193     4.5948    -2.8738 O.2     
  34 H34           -0.9020     1.8211    -0.0277 H       
  35 H35           -1.9774    -0.2355     0.2459 H       
  36 H36            0.8455    -2.2879     0.6793 H       
  37 H37            0.8677    -4.7408     0.4788 H       
  38 H38           -1.0977    -5.9226    -0.4144 H       
  39 H39           -3.0902    -4.6561    -1.1092 H       
  40 H40           -3.1260    -2.2038    -0.9037 H       
  41 H41            1.9009     1.8749     0.3257 H       
  42 H42            1.5530     1.8871    -1.4199 H       
  43 H43            0.1046     3.8769    -1.1173 H       
  44 H44            0.4525     3.8647     0.6283 H       
  45 H45            9.0470     2.5632    -3.4826 H       
  46 H46            8.6050     1.9223    -5.0973 H       
  47 H47            7.2054     6.5546    -4.2731 H       
  48 H48            4.7896     2.8266    -2.1340 H       
  49 H49            3.4517     7.6739    -1.3399 H       
  50 H50            2.9611     7.0510    -2.9504 H       
  51 H51            5.8367     6.5473     0.2453 H       
  52 H52            5.7404     6.1871     2.6812 H       
  53 H53            3.8618     4.9363     3.6643 H       
  54 H54            2.0820     4.0457     2.2271 H       
@<TRIPOS>BOND
   1    1    2 am
   2    1   11 1
   3    1   34 1
   4    2    3 2
   5    2    4 am
   6    4    5 1
   7    4   35 1
   8    5    6 ar
   9    5   10 ar
  10    6    7 ar
  11    6   36 1
  12    7    8 ar
  13    7   37 1
  14    8    9 ar
  15    8   38 1
  16    9   10 ar
  17    9   39 1
  18   10   40 1
  19   11   12 1
  20   11   41 1
  21   11   42 1
  22   12   25 1
  23   12   43 1
  24   12   44 1
  25   13   14 1
  26   13   17 1
  27   14   15 1
  28   14   45 1
  29   14   46 1
  30   15   16 1
  31   16   17 ar
  32   16   18 ar
  33   17   21 ar
  34   18   19 ar
  35   18   47 1
  36   19   20 ar
  37   19   22 1
  38   20   21 ar
  39   20   23 1
  40   21   48 1
  41   22   24 1
  42   23   24 1
  43   23   26 1
  44   23   27 1
  45   24   49 1
  46   24   50 1
  47   25   26 am
  48   25   32 1
  49   26   33 2
  50   27   28 ar
  51   27   32 ar
  52   28   29 ar
  53   28   51 1
  54   29   30 ar
  55   29   52 1
  56   30   31 ar
  57   30   53 1
  58   31   32 ar
  59   31   54 1

#	End of record

