#	Name: ASD01180070
#	Creating user name:	WinNT
#	Creation time:	15. 06. 2019 19:06

#	Modifying user name:	WinNT
#	Modification time:	15. 06. 2019 19:06

#	Program:	/corina/corina34_cracker 3.40 0067  02.08.2006

@<TRIPOS>MOLECULE
ASD01180070
  60   63    0    0    0
SMALL
NO_CHARGES


@<TRIPOS>ATOM
   1 C1             0.1863     1.3957    -0.3058 C.2     
   2 C2             0.2155    -0.0794    -0.2317 C.ar    
   3 C3             1.4212    -0.7466    -0.0064 C.ar    
   4 C4             1.4412    -2.1242     0.0622 C.ar    
   5 C5             0.2701    -2.8448    -0.0922 C.ar    
   6 C6            -0.9282    -2.1900    -0.3161 C.ar    
   7 C7            -0.9635    -0.8126    -0.3808 C.ar    
   8 O8             1.2128     2.0310    -0.1707 O.2     
   9 O9            -0.9777     2.0360    -0.5288 O.3     
  10 C10            0.2998    -4.3496    -0.0165 C.3     
  11 N11            0.0898    -4.7742     1.3740 N.3     
  12 N12            0.4314    -6.9947     0.7454 N.ar    
  13 C13           -0.2624    -6.1145     1.4368 C.ar    
  14 C14           -1.3489    -6.5003     2.2353 C.ar    
  15 C15           -1.7064    -7.8128     2.3067 C.ar    
  16 C16           -0.9597    -8.7503     1.5637 C.ar    
  17 C17           -1.2740   -10.1173     1.5916 C.ar    
  18 C18           -0.5298   -10.9956     0.8594 C.ar    
  19 C19            0.5401   -10.5510     0.0834 C.ar    
  20 C20            0.8710    -9.2313     0.0354 C.ar    
  21 C21            0.1267    -8.2976     0.7760 C.ar    
  22 C22           -2.1191    -5.4648     3.0134 C.3     
  23 F23           -0.8327   -12.3119     0.8870 F       
  24 C24            1.2794    -4.5036     2.1924 C.3     
  25 C25            1.0587    -4.7374     3.6962 C.3     
  26 C26            2.4686    -5.3506     3.7278 C.3     
  27 C27            2.2758    -5.6742     2.2368 C.3     
  28 C28            3.5755    -4.3288     3.9951 C.3     
  29 C29            2.5772    -6.5922     4.6153 C.3     
  30 C30           -0.9314     3.4860    -0.5893 C.3     
  31 C31           -2.3375     4.0308    -0.8479 C.3     
  32 H32            2.3361    -0.1854     0.1136 H       
  33 H33            2.3731    -2.6415     0.2364 H       
  34 H34           -1.8385    -2.7586    -0.4365 H       
  35 H35           -1.9001    -0.3025    -0.5509 H       
  36 H36           -0.4901    -4.7607    -0.6451 H       
  37 H37            1.2670    -4.7118    -0.3649 H       
  38 H38           -2.5401    -8.1273     2.9170 H       
  39 H39           -2.1003   -10.4725     2.1895 H       
  40 H40            1.1152   -11.2646    -0.4880 H       
  41 H41            1.7029    -8.9031    -0.5700 H       
  42 H42           -2.9911    -5.1527     2.4386 H       
  43 H43           -2.4433    -5.8906     3.9630 H       
  44 H44           -1.4801    -4.6020     3.2014 H       
  45 H45            1.7416    -3.5435     1.9630 H       
  46 H46            0.9700    -3.8166     4.2728 H       
  47 H47            0.2662    -5.4530     3.9152 H       
  48 H48            1.8161    -6.6459     2.0568 H       
  49 H49            3.1697    -5.5097     1.6352 H       
  50 H50            3.4058    -3.8536     4.9613 H       
  51 H51            4.5416    -4.8335     4.0031 H       
  52 H52            3.5677    -3.5713     3.2113 H       
  53 H53            1.9605    -7.3899     4.2012 H       
  54 H54            3.6159    -6.9199     4.6561 H       
  55 H55            2.2325    -6.3512     5.6209 H       
  56 H56           -0.5585     3.8774     0.3572 H       
  57 H57           -0.2678     3.7949    -1.3969 H       
  58 H58           -2.7104     3.6394    -1.7944 H       
  59 H59           -3.0011     3.7219    -0.0403 H       
  60 H60           -2.3027     5.1193    -0.8933 H       
@<TRIPOS>BOND
   1    1    2 1
   2    1    8 2
   3    1    9 1
   4    2    3 ar
   5    2    7 ar
   6    3    4 ar
   7    3   32 1
   8    4    5 ar
   9    4   33 1
  10    5    6 ar
  11    5   10 1
  12    6    7 ar
  13    6   34 1
  14    7   35 1
  15    9   30 1
  16   10   11 1
  17   10   36 1
  18   10   37 1
  19   11   13 1
  20   11   24 1
  21   12   13 ar
  22   12   21 ar
  23   13   14 ar
  24   14   15 ar
  25   14   22 1
  26   15   16 ar
  27   15   38 1
  28   16   17 ar
  29   16   21 ar
  30   17   18 ar
  31   17   39 1
  32   18   19 ar
  33   18   23 1
  34   19   20 ar
  35   19   40 1
  36   20   21 ar
  37   20   41 1
  38   22   42 1
  39   22   43 1
  40   22   44 1
  41   24   25 1
  42   24   27 1
  43   24   45 1
  44   25   26 1
  45   25   46 1
  46   25   47 1
  47   26   27 1
  48   26   28 1
  49   26   29 1
  50   27   48 1
  51   27   49 1
  52   28   50 1
  53   28   51 1
  54   28   52 1
  55   29   53 1
  56   29   54 1
  57   29   55 1
  58   30   31 1
  59   30   56 1
  60   30   57 1
  61   31   58 1
  62   31   59 1
  63   31   60 1

#	End of record

