#	Name: ASD01817047
#	Creating user name:	WinNT
#	Creation time:	15. 06. 2019 19:36

#	Modifying user name:	WinNT
#	Modification time:	15. 06. 2019 19:36

#	Program:	/corina/corina34_cracker 3.40 0067  02.08.2006

@<TRIPOS>MOLECULE
ASD01817047
  62   65    0    0    0
SMALL
NO_CHARGES


@<TRIPOS>ATOM
   1 C1            -0.1233     2.0913     0.7659 C.3     
   2 N2            -0.2453     0.6212     0.8425 N.am    
   3 C3             0.2457    -0.1276    -0.3315 C.3     
   4 C4             0.7647     0.9139    -1.3346 C.3     
   5 C5             1.8864     1.7226    -0.6787 C.3     
   6 C6             1.3583     2.4334     0.5683 C.3     
   7 C7            -0.9057     2.5673    -0.4639 C.3     
   8 C8            -0.3803     1.8568    -1.7122 C.3     
   9 C9            -0.7716     0.0018     1.9176 C.2     
  10 O10           -1.1639     0.6555     2.8638 O.2     
  11 O11           -0.8627    -1.3412     1.9431 O.3     
  12 N12            2.9806     0.8193    -0.2983 N.3     
  13 C13            4.1264     1.5725     0.2271 C.3     
  14 C14            5.1850     0.5970     0.7464 C.3     
  15 C15            5.6329    -0.3184    -0.3963 C.3     
  16 C16            4.4135    -1.0550    -0.9576 C.3     
  17 C17            3.3772    -0.0316    -1.4276 C.3     
  18 N18            6.3369     1.3485     1.2512 N.pl3   
  19 C19            7.1707     0.7822     2.2159 C.2     
  20 C20            6.9192    -0.4434     2.6786 C.2     
  21 C21            8.3346     1.5415     2.7260 C.ar    
  22 C22            8.1535     2.8060     3.2976 C.ar    
  23 C23            9.2487     3.5089     3.7727 C.ar    
  24 C24           10.5150     2.9623     3.6819 C.ar    
  25 C25           10.6977     1.7123     3.1173 C.ar    
  26 C26            9.6156     0.9981     2.6445 C.ar    
  27 O27            6.9087     3.3422     3.3859 O.3     
  28 H28           -0.5050     2.5550     1.6755 H       
  29 C29           -1.4402    -1.9402     3.1331 C.3     
  30 C30           -1.4603    -3.4623     2.9794 C.3     
  31 H31            1.0544    -0.7959    -0.0359 H       
  32 H32           -0.5687    -0.6998    -0.7759 H       
  33 H33            1.1467     0.4097    -2.2223 H       
  34 H34            2.2600     2.4630    -1.3861 H       
  35 H35            1.4689     3.5108     0.4463 H       
  36 H36            1.9255     2.1069     1.4399 H       
  37 H37           -1.9630     2.3370    -0.3331 H       
  38 H38           -0.7806     3.6440    -0.5794 H       
  39 H39           -0.0186     2.5978    -2.4250 H       
  40 H40           -1.1868     1.2823    -2.1679 H       
  41 H41            4.5544     2.1837    -0.5675 H       
  42 H42            3.7950     2.2164     1.0418 H       
  43 H43            4.7618    -0.0050     1.5505 H       
  44 H44            6.0915     0.2797    -1.1838 H       
  45 H45            6.3552    -1.0432    -0.0207 H       
  46 H46            4.7192    -1.6761    -1.7995 H       
  47 H47            3.9781    -1.6830    -0.1804 H       
  48 H48            2.5016    -0.5528    -1.8147 H       
  49 H49            3.8087     0.5871    -2.2144 H       
  50 H50            6.5198     2.2397     0.9148 H       
  51 H51            7.5107    -0.8475     3.4869 H       
  52 H52            6.1240    -1.0317     2.2450 H       
  53 H53            9.1129     4.4851     4.2142 H       
  54 H54           11.3662     3.5138     4.0532 H       
  55 H55           11.6904     1.2923     3.0501 H       
  56 H56            9.7616     0.0210     2.2082 H       
  57 H57            6.4435     3.1238     4.2050 H       
  58 H58           -0.8410    -1.6707     4.0028 H       
  59 H59           -2.4585    -1.5750     3.2661 H       
  60 H60           -2.0595    -3.7318     2.1097 H       
  61 H61           -0.4420    -3.8276     2.8464 H       
  62 H62           -1.8938    -3.9120     3.8727 H       
@<TRIPOS>BOND
   1    1    2 1
   2    1    6 1
   3    1    7 1
   4    1   28 1
   5    2    3 1
   6    2    9 am
   7    3    4 1
   8    3   31 1
   9    3   32 1
  10    4    5 1
  11    4    8 1
  12    4   33 1
  13    5    6 1
  14    5   12 1
  15    5   34 1
  16    6   35 1
  17    6   36 1
  18    7    8 1
  19    7   37 1
  20    7   38 1
  21    8   39 1
  22    8   40 1
  23    9   10 2
  24    9   11 1
  25   11   29 1
  26   12   13 1
  27   12   17 1
  28   13   14 1
  29   13   41 1
  30   13   42 1
  31   14   15 1
  32   14   18 1
  33   14   43 1
  34   15   16 1
  35   15   44 1
  36   15   45 1
  37   16   17 1
  38   16   46 1
  39   16   47 1
  40   17   48 1
  41   17   49 1
  42   18   19 1
  43   18   50 1
  44   19   20 2
  45   19   21 1
  46   20   51 1
  47   20   52 1
  48   21   22 ar
  49   21   26 ar
  50   22   23 ar
  51   22   27 1
  52   23   24 ar
  53   23   53 1
  54   24   25 ar
  55   24   54 1
  56   25   26 ar
  57   25   55 1
  58   26   56 1
  59   27   57 1
  60   29   30 1
  61   29   58 1
  62   29   59 1
  63   30   60 1
  64   30   61 1
  65   30   62 1

#	End of record

