#	Name: ASD03080013
#	Creating user name:	WinNT
#	Creation time:	15. 06. 2019 20:26

#	Modifying user name:	WinNT
#	Modification time:	15. 06. 2019 20:26

#	Program:	/corina/corina34_cracker 3.40 0067  02.08.2006

@<TRIPOS>MOLECULE
ASD03080013
  24   26    0    0    0
SMALL
NO_CHARGES


@<TRIPOS>ATOM
   1 O1            -0.0144     1.2086     0.0087 O.3     
   2 N2             0.0021    -0.0041     0.0020 N.2     
   3 C3             1.2351    -0.4415    -0.0121 C.2     
   4 N4             2.0452     0.6375    -0.0140 N.2     
   5 C5             1.2409     1.6827    -0.0008 C.2     
   6 C6             3.0169    -2.1938    -0.0376 C.ar    
   7 C7             1.6637    -1.8627    -0.0234 C.ar    
   8 C8             0.7167    -2.8898    -0.0194 C.ar    
   9 C9             1.1675    -4.1989    -0.0299 C.ar    
  10 C10            2.5280    -4.4455    -0.0438 C.ar    
  11 N11            3.3986    -3.4544    -0.0472 N.ar    
  12 C12            1.6454     3.1061     0.0030 C.ar    
  13 C13            0.6755     4.1096     0.0182 C.ar    
  14 N14            2.9348     3.4336    -0.0025 N.ar    
  15 N15            1.0420     5.3779     0.0220 N.ar    
  16 C16            2.3247     5.6971     0.0114 C.ar    
  17 C17            3.2908     4.7036     0.0014 C.ar    
  18 H18            3.7595    -1.4098    -0.0453 H       
  19 H19           -0.3403    -2.6683    -0.0082 H       
  20 H20            0.4642    -5.0185    -0.0269 H       
  21 H21            2.8833    -5.4653    -0.0520 H       
  22 H22           -0.3726     3.8492     0.0265 H       
  23 H23            2.6208     6.7357     0.0145 H       
  24 H24            4.3375     4.9699    -0.0030 H       
@<TRIPOS>BOND
   1    1    2 1
   2    1    5 1
   3    2    3 2
   4    3    4 1
   5    3    7 1
   6    4    5 2
   7    5   12 1
   8    6    7 ar
   9    6   11 ar
  10    6   18 1
  11    7    8 ar
  12    8    9 ar
  13    8   19 1
  14    9   10 ar
  15    9   20 1
  16   10   11 ar
  17   10   21 1
  18   12   13 ar
  19   12   14 ar
  20   13   15 ar
  21   13   22 1
  22   14   17 ar
  23   15   16 ar
  24   16   17 ar
  25   16   23 1
  26   17   24 1

#	End of record

