#	Name: ASD02900011
#	Creating user name:	WinNT
#	Creation time:	15. 06. 2019 20:26

#	Modifying user name:	WinNT
#	Modification time:	15. 06. 2019 20:26

#	Program:	/corina/corina34_cracker 3.40 0067  02.08.2006

@<TRIPOS>MOLECULE
ASD02900011
  29   29    0    0    0
SMALL
NO_CHARGES


@<TRIPOS>ATOM
   1 C1            -0.0167     1.3804     0.0096 C.ar    
   2 C2             0.0021    -0.0041     0.0020 C.ar    
   3 C3             1.2110    -0.6789    -0.0131 C.ar    
   4 C4             2.3973     0.0299    -0.0207 C.ar    
   5 C5             2.3774     1.4122    -0.0131 C.ar    
   6 C6             1.1709     2.0870     0.0021 C.ar    
   7 S7             3.8907     2.3145    -0.0221 S.o2    
   8 O8             4.8803     1.4437     0.5086 O.2     
   9 N9             4.2973     2.5741    -1.6063 N.am    
  10 C10            3.4469     3.4151    -2.4524 C.3     
  11 C11            4.2105     3.7987    -3.7215 C.3     
  12 O12            4.4701     2.6251    -4.4943 O.3     
  13 P13            5.2575     2.6561    -5.8984 P.3     
  14 O14            4.5892     3.6039    -6.8179 O.2     
  15 O15            6.7766     3.1287    -5.6514 O.3     
  16 O16            5.2526     1.1834    -6.5490 O.3     
  17 O17            3.6004     3.5905     0.5319 O.2     
  18 F18           -1.1583    -0.6959     0.0098 F       
  19 H19           -0.9591     1.9078     0.0170 H       
  20 H20            1.2268    -1.7588    -0.0187 H       
  21 H21            3.3404    -0.4962    -0.0321 H       
  22 H22            1.1565     3.1669     0.0080 H       
  23 H23            5.0984     2.1693    -1.9740 H       
  24 H24            2.5458     2.8647    -2.7229 H       
  25 H25            3.1714     4.3178    -1.9073 H       
  26 H26            3.6125     4.4955    -4.3088 H       
  27 H27            5.1546     4.2704    -3.4489 H       
  28 H28            7.2761     2.5524    -5.0569 H       
  29 H29            5.7106     1.1274    -7.3988 H       
@<TRIPOS>BOND
   1    1    2 ar
   2    1    6 ar
   3    1   19 1
   4    2    3 ar
   5    2   18 1
   6    3    4 ar
   7    3   20 1
   8    4    5 ar
   9    4   21 1
  10    5    6 ar
  11    5    7 1
  12    6   22 1
  13    7    8 2
  14    7    9 am
  15    7   17 2
  16    9   10 1
  17    9   23 1
  18   10   11 1
  19   10   24 1
  20   10   25 1
  21   11   12 1
  22   11   26 1
  23   11   27 1
  24   12   13 1
  25   13   14 2
  26   13   15 1
  27   13   16 1
  28   15   28 1
  29   16   29 1

#	End of record

