#	Name: ASD02508224
#	Creating user name:	WinNT
#	Creation time:	15. 06. 2019 20:24

#	Modifying user name:	WinNT
#	Modification time:	15. 06. 2019 20:24

#	Program:	/corina/corina34_cracker 3.40 0067  02.08.2006

@<TRIPOS>MOLECULE
ASD02508224
  57   61    0    0    0
SMALL
NO_CHARGES


@<TRIPOS>ATOM
   1 C1            -0.0168     1.3904     0.0097 C.ar    
   2 C2             0.0021    -0.0041     0.0020 C.ar    
   3 C3            -1.1922    -0.7077     0.0096 C.ar    
   4 C4            -2.3933    -0.0260     0.0248 C.ar    
   5 C5            -2.4110     1.3580     0.0319 C.ar    
   6 C6            -1.2261     2.0677     0.0299 C.ar    
   7 S7            -3.9102    -0.9224     0.0344 S.o2    
   8 N8            -4.6586    -0.6040     1.4770 N.am    
   9 C9            -5.5849     0.5297     1.6048 C.3     
  10 N10            1.3140     1.8071    -0.0008 N.am    
  11 C11            2.0846     0.7014    -0.0141 C.2     
  12 O12            1.3018    -0.3890    -0.0125 O.3     
  13 O13           -4.7245    -0.3441    -0.9763 O.2     
  14 O14           -3.5621    -2.2999     0.0585 O.2     
  15 C15            1.7879     3.1933     0.0021 C.3     
  16 O16            3.3005     0.6929    -0.0257 O.2     
  17 C17           -6.9290     0.0079     2.1276 C.3     
  18 N18           -6.6791    -0.8386     3.3028 N.am    
  19 C19           -5.7527    -1.9723     3.1750 C.3     
  20 C20           -4.4130    -1.4538     2.6506 C.3     
  21 S21           -7.4275    -0.5201     4.7453 S.o2    
  22 C22           -8.9447    -1.4160     4.7547 C.ar    
  23 C23           -8.9821    -2.7045     5.2541 C.ar    
  24 C24           -3.7268     2.0925     0.0474 C.3     
  25 O25           -6.6135    -1.0990     5.7560 O.2     
  26 O26           -7.7751     0.8575     4.7215 O.2     
  27 C27          -10.0965    -0.8273     4.2678 C.ar    
  28 C28          -11.2891    -1.5265     4.2748 C.ar    
  29 C29          -11.3328    -2.8204     4.7712 C.ar    
  30 C30          -10.1747    -3.4118     5.2627 C.ar    
  31 O31          -12.5158    -3.4935     4.7792 O.3     
  32 C32          -12.4465    -4.9148     4.9372 C.3     
  33 C33          -11.4747    -5.2244     6.0839 C.3     
  34 O34          -10.1938    -4.6835     5.7475 O.3     
  35 H35           -1.1834    -1.7877     0.0034 H       
  36 H36           -1.2417     3.1476     0.0359 H       
  37 H37           -5.1774     1.2579     2.3061 H       
  38 H38           -5.7279     0.9969     0.6304 H       
  39 H39            1.9152     3.5316     1.0305 H       
  40 H40            2.7426     3.2521    -0.5205 H       
  41 H41            1.0584     3.8277    -0.5014 H       
  42 H42           -7.5628     0.8484     2.4103 H       
  43 H43           -7.4203    -0.5793     1.3517 H       
  44 H44           -5.6097    -2.4395     4.1493 H       
  45 H45           -6.1603    -2.7004     2.4736 H       
  46 H46           -3.7802    -2.2952     2.3684 H       
  47 H47           -3.9201    -0.8657     3.4247 H       
  48 H48           -8.0815    -3.1608     5.6377 H       
  49 H49           -4.0348     2.2644     1.0788 H       
  50 H50           -3.6149     3.0493    -0.4626 H       
  51 H51           -4.4825     1.4951    -0.4627 H       
  52 H52          -10.0649     0.1807     3.8816 H       
  53 H53          -12.1876    -1.0642     3.8936 H       
  54 H54          -13.4350    -5.3065     5.1773 H       
  55 H55          -12.0842    -5.3699     4.0154 H       
  56 H56          -11.8340    -4.7645     7.0045 H       
  57 H57          -11.3958    -6.3033     6.2177 H       
@<TRIPOS>BOND
   1    1    2 ar
   2    1   10 1
   3    1    6 ar
   4    2    3 ar
   5    2   12 1
   6    3    4 ar
   7    3   35 1
   8    4    5 ar
   9    4    7 1
  10    5    6 ar
  11    5   24 1
  12    6   36 1
  13    7    8 am
  14    7   13 2
  15    7   14 2
  16    8    9 1
  17    8   20 1
  18    9   17 1
  19    9   37 1
  20    9   38 1
  21   10   11 am
  22   10   15 1
  23   11   12 1
  24   11   16 2
  25   15   39 1
  26   15   40 1
  27   15   41 1
  28   17   18 1
  29   17   42 1
  30   17   43 1
  31   18   19 1
  32   18   21 am
  33   19   20 1
  34   19   44 1
  35   19   45 1
  36   20   46 1
  37   20   47 1
  38   21   22 1
  39   21   25 2
  40   21   26 2
  41   22   23 ar
  42   22   27 ar
  43   23   30 ar
  44   23   48 1
  45   24   49 1
  46   24   50 1
  47   24   51 1
  48   27   28 ar
  49   27   52 1
  50   28   29 ar
  51   28   53 1
  52   29   30 ar
  53   29   31 1
  54   30   34 1
  55   31   32 1
  56   32   33 1
  57   32   54 1
  58   32   55 1
  59   33   34 1
  60   33   56 1
  61   33   57 1

#	End of record

