#	Name: ASD01901065
#	Creating user name:	WinNT
#	Creation time:	15. 06. 2019 19:53

#	Modifying user name:	WinNT
#	Modification time:	15. 06. 2019 19:53

#	Program:	/corina/corina34_cracker 3.40 0067  02.08.2006

@<TRIPOS>MOLECULE
ASD01901065
  41   43    0    0    0
SMALL
NO_CHARGES


@<TRIPOS>ATOM
   1 C1             0.9853     3.1576     0.7501 C.ar    
   2 C2             2.0492     3.6082     1.5287 C.ar    
   3 C3             3.2483     2.9142     1.4963 C.ar    
   4 C4             3.3420     1.7933     0.6861 C.ar    
   5 C5             2.2432     1.4021    -0.0619 C.ar    
   6 N6             1.1167     2.0792    -0.0125 N.ar    
   7 C7            -0.3050     3.8845     0.7782 C.2     
   8 O8            -0.4323     4.8696     1.4784 O.2     
   9 N9            -1.3378     3.4535     0.0271 N.am    
  10 C10           -2.5840     4.0799     0.1267 C.ar    
  11 C11           -2.6591     5.4507     0.3375 C.ar    
  12 C12           -3.8915     6.0664     0.4349 C.ar    
  13 C13           -5.0499     5.3195     0.3232 C.ar    
  14 C14           -4.9787     3.9545     0.1133 C.ar    
  15 C15           -3.7495     3.3336     0.0092 C.ar    
  16 S16           -6.6202     6.1087     0.4492 S.o2    
  17 O17           -7.4919     5.0838     0.9062 O.2     
  18 O18           -6.3698     7.2634     1.2386 O.2     
  19 C19           -7.0286     6.5788    -1.2546 C.3     
  20 C20           -8.3668     7.2713    -1.2776 C.ar    
  21 C21           -8.4378     8.6450    -1.1272 C.ar    
  22 C22           -9.6666     9.2801    -1.1489 C.ar    
  23 C23          -10.8227     8.5421    -1.3209 C.ar    
  24 C24          -10.7512     7.1699    -1.4706 C.ar    
  25 C25           -9.5229     6.5353    -1.4547 C.ar    
  26 Cl26          -6.9855     9.5711    -0.9107 Cl      
  27 H27            1.9411     4.4860     2.1485 H       
  28 H28            4.0908     3.2395     2.0886 H       
  29 H29            4.2625     1.2305     0.6380 H       
  30 H30            2.3128     0.5295    -0.6945 H       
  31 H31           -1.2166     2.7088    -0.5824 H       
  32 H32           -1.7547     6.0345     0.4256 H       
  33 H33           -3.9505     7.1322     0.5988 H       
  34 H34           -5.8853     3.3740     0.0268 H       
  35 H35           -3.6945     2.2681    -0.1588 H       
  36 H36           -6.2636     7.2537    -1.6386 H       
  37 H37           -7.0709     5.6855    -1.8777 H       
  38 H38           -9.7226    10.3522    -1.0312 H       
  39 H39          -11.7821     9.0377    -1.3378 H       
  40 H40          -11.6548     6.5936    -1.6043 H       
  41 H41           -9.4673     5.4636    -1.5762 H       
@<TRIPOS>BOND
   1    1    2 ar
   2    1    6 ar
   3    1    7 1
   4    2    3 ar
   5    2   27 1
   6    3    4 ar
   7    3   28 1
   8    4    5 ar
   9    4   29 1
  10    5    6 ar
  11    5   30 1
  12    7    8 2
  13    7    9 am
  14    9   10 1
  15    9   31 1
  16   10   11 ar
  17   10   15 ar
  18   11   12 ar
  19   11   32 1
  20   12   13 ar
  21   12   33 1
  22   13   14 ar
  23   13   16 1
  24   14   15 ar
  25   14   34 1
  26   15   35 1
  27   16   17 2
  28   16   18 2
  29   16   19 1
  30   19   20 1
  31   19   36 1
  32   19   37 1
  33   20   21 ar
  34   20   25 ar
  35   21   22 ar
  36   21   26 1
  37   22   23 ar
  38   22   38 1
  39   23   24 ar
  40   23   39 1
  41   24   25 ar
  42   24   40 1
  43   25   41 1

#	End of record

