#	Name: ASD01410861
#	Creating user name:	WinNT
#	Creation time:	15. 06. 2019 19:18

#	Modifying user name:	WinNT
#	Modification time:	15. 06. 2019 19:18

#	Program:	/corina/corina34_cracker 3.40 0067  02.08.2006

@<TRIPOS>MOLECULE
ASD01410861
 123  130    0    0    0
SMALL
NO_CHARGES


@<TRIPOS>ATOM
   1 C1             0.7667     1.6887     1.0360 C.3     
   2 C2             0.3977     0.4204     1.8400 C.3     
   3 N3             0.2393     0.8974     3.2293 N.am    
   4 C4            -0.1481     2.3130     3.1930 C.3     
   5 C5            -0.1403     2.7525     1.7126 C.3     
   6 O6             2.1486     2.0148     1.1971 O.3     
   7 C7            -1.5299     2.4812     3.7703 C.2     
   8 O8            -2.1396     1.5143     4.1758 O.2     
   9 N9            -2.0883     3.7061     3.8360 N.am    
  10 C10            1.5717    -0.5648     1.8193 C.3     
  11 C11            1.0608    -1.2236     4.2248 C.3     
  12 C12            0.4592     0.1500     4.3241 C.2     
  13 O13            0.1669     0.5932     5.4146 O.2     
  14 C14            0.0987    -2.2378     4.8465 C.3     
  15 C15           -1.1684    -2.3279     3.9938 C.3     
  16 C16           -3.4745     3.8561     4.2856 C.3     
  17 C17           -4.5193     3.2502     3.3843 C.2     
  18 N18           -4.1685     2.7658     2.1765 N.am    
  19 O19           -5.6758     3.1986     3.7458 O.2     
  20 S20           -5.3327     2.2175     1.1343 S.o2    
  21 C21           -6.3051     3.6931     0.7250 C.3     
  22 C22           -3.7359     3.8220     5.7927 C.3     
  23 C23           -3.8414     5.1432     5.0269 C.3     
  24 C24           -7.5503     3.5002    -0.1430 C.3     
  25 C25           -7.6976     3.8164     1.3467 C.3     
  26 O26           -4.6043     1.7696    -0.0006 O.2     
  27 O27           -6.1031     1.3131     1.9140 O.2     
  28 C28           -5.0188     3.1857     6.2622 C.2     
  29 C29           -4.9812     2.1498     7.0632 C.2     
  30 C30            2.7210     2.7674     0.2249 C.ar    
  31 C31            4.0919     3.1109     0.2851 C.ar    
  32 C32            1.9881     3.2104    -0.8447 C.ar    
  33 C33            2.6033     3.9864    -1.8366 C.ar    
  34 N34            3.8846     4.3060    -1.7686 N.ar    
  35 C35            4.6507     3.8985    -0.7516 C.ar    
  36 C36            1.8016     4.4580    -2.9851 C.2     
  37 S37            0.0877     4.1364    -3.2363 S.3     
  38 C38            6.0117     4.2453    -0.6903 C.ar    
  39 C39            6.7769     3.8119     0.3694 C.ar    
  40 C40            6.2154     3.0314     1.3839 C.ar    
  41 C41            4.8993     2.6855     1.3499 C.ar    
  42 Cl42           6.7234     5.2136    -1.9431 Cl      
  43 O43            8.0924     4.1462     0.4292 O.3     
  44 C44            8.8333     3.6666     1.5531 C.3     
  45 N45            2.2474     5.1828    -3.9712 N.2     
  46 C46            1.3897     5.5100    -4.9072 C.2     
  47 C47            0.1405     5.0577    -4.7380 C.2     
  48 C48            1.7842     6.3448    -6.0982 C.3     
  49 C49            2.1357     5.4267    -7.2706 C.3     
  50 C50            0.6180     7.2529    -6.4934 C.3     
  51 C51           10.2842     4.1405     1.4473 C.3     
  52 N52           10.3295     5.6053     1.5485 N.3     
  53 C53           11.7133     6.0812     1.6895 C.3     
  54 C54           11.7192     7.6116     1.7313 C.3     
  55 O55           10.8817     8.0575     2.8014 O.3     
  56 C56            9.5266     7.6127     2.6955 C.3     
  57 C57            9.4984     6.0823     2.6635 C.3     
  58 N58            1.3129    -1.5942     2.8340 N.am    
  59 O59            1.4238    -3.2385     1.1824 O.3     
  60 C60            1.4106    -4.6571     0.8731 C.3     
  61 C61            0.0901    -5.2695     1.3445 C.3     
  62 C62            1.5521    -4.8511    -0.6379 C.3     
  63 C63            2.5756    -5.3455     1.5870 C.3     
  64 C64            1.3078    -2.8944     2.4788 C.2     
  65 O65            1.1985    -3.7559     3.3287 O.2     
  66 H66            0.5146     1.5714    -0.0180 H       
  67 H67           -0.5212    -0.0323     1.4676 H       
  68 H68            0.5678     2.9079     3.7601 H       
  69 H69            0.2904     3.7484     1.6086 H       
  70 H70           -1.1471     2.7215     1.2962 H       
  71 H71           -1.5723     4.4884     3.5856 H       
  72 H72            1.6478    -1.0276     0.8353 H       
  73 H73            2.4979    -0.0402     2.0537 H       
  74 H74            2.0019    -1.2415     4.7743 H       
  75 H75            0.5788    -3.2156     4.8884 H       
  76 H76           -0.1640    -1.9185     5.8551 H       
  77 H77           -1.8121    -3.1174     4.3818 H       
  78 H78           -1.6988    -1.3764     4.0295 H       
  79 H79           -0.8971    -2.5542     2.9627 H       
  80 H80           -3.2340     2.7384     1.9177 H       
  81 H81           -5.7323     4.6101     0.5867 H       
  82 H82           -2.8765     3.6881     6.4497 H       
  83 H83           -3.0514     5.8784     5.1804 H       
  84 H84           -4.8386     5.5517     4.8630 H       
  85 H85           -7.7969     4.2905    -0.8520 H       
  86 H86           -7.7852     2.4867    -0.4680 H       
  87 H87           -8.0294     3.0109     2.0018 H       
  88 H88           -8.0412     4.8147     1.6178 H       
  89 H89           -5.9691     3.5838     5.9384 H       
  90 H90           -4.0309     1.7517     7.3870 H       
  91 H91           -5.9006     1.6937     7.3996 H       
  92 H92            0.9400     2.9622    -0.9234 H       
  93 H93            6.8325     2.7014     2.2065 H       
  94 H94            4.4781     2.0820     2.1403 H       
  95 H95            8.3909     4.0527     2.4714 H       
  96 H96            8.8071     2.5770     1.5673 H       
  97 H97           -0.6910     5.2289    -5.4056 H       
  98 H98            2.6501     6.9557    -5.8429 H       
  99 H99            2.4211     6.0305    -8.1320 H       
 100 H100           2.9666     4.7798    -6.9891 H       
 101 H101           1.2699     4.8158    -7.5259 H       
 102 H102           0.3676     7.9069    -5.6581 H       
 103 H103           0.9034     7.8567    -7.3548 H       
 104 H104          -0.2479     6.6419    -6.7487 H       
 105 H105          10.8694     3.7022     2.2558 H       
 106 H106          10.6990     3.8295     0.4885 H       
 107 H107          12.1403     5.6902     2.6130 H       
 108 H108          12.3044     5.7380     0.8405 H       
 109 H109          12.7368     7.9673     1.8930 H       
 110 H110          11.3420     8.0029     0.7865 H       
 111 H111           8.9584     7.9693     3.5547 H       
 112 H112           9.0856     8.0041     1.7788 H       
 113 H113           8.4729     5.7400     2.5255 H       
 114 H114           9.8901     5.6914     3.6026 H       
 115 H115          -0.7399    -4.7791     0.8359 H       
 116 H116           0.0802    -6.3345     1.1124 H       
 117 H117          -0.0107    -5.1314     2.4210 H       
 118 H118           2.4929    -4.4147    -0.9737 H       
 119 H119           1.5422    -5.9160    -0.8700 H       
 120 H120           0.7221    -4.3606    -1.1465 H       
 121 H121           2.4748    -5.2074     2.6635 H       
 122 H122           2.5657    -6.4105     1.3549 H       
 123 H123           3.5164    -4.9092     1.2513 H       
@<TRIPOS>BOND
   1    1    2 1
   2    1    6 1
   3    1    5 1
   4    1   66 1
   5    2    3 1
   6    2   10 1
   7    2   67 1
   8    3    4 1
   9    3   12 am
  10    4    5 1
  11    4    7 1
  12    4   68 1
  13    5   69 1
  14    5   70 1
  15    6   30 1
  16    7    8 2
  17    7    9 am
  18    9   16 1
  19    9   71 1
  20   10   58 1
  21   10   72 1
  22   10   73 1
  23   11   12 1
  24   11   14 1
  25   11   58 1
  26   11   74 1
  27   12   13 2
  28   14   15 1
  29   14   75 1
  30   14   76 1
  31   15   77 1
  32   15   78 1
  33   15   79 1
  34   16   17 1
  35   16   22 1
  36   16   23 1
  37   17   18 am
  38   17   19 2
  39   18   20 am
  40   18   80 1
  41   20   21 1
  42   20   26 2
  43   20   27 2
  44   21   24 1
  45   21   25 1
  46   21   81 1
  47   22   23 1
  48   22   28 1
  49   22   82 1
  50   23   83 1
  51   23   84 1
  52   24   25 1
  53   24   85 1
  54   24   86 1
  55   25   87 1
  56   25   88 1
  57   28   29 2
  58   28   89 1
  59   29   90 1
  60   29   91 1
  61   30   31 ar
  62   30   32 ar
  63   31   35 ar
  64   31   41 ar
  65   32   33 ar
  66   32   92 1
  67   33   34 ar
  68   33   36 1
  69   34   35 ar
  70   35   38 ar
  71   36   45 2
  72   36   37 1
  73   37   47 1
  74   38   39 ar
  75   38   42 1
  76   39   40 ar
  77   39   43 1
  78   40   41 ar
  79   40   93 1
  80   41   94 1
  81   43   44 1
  82   44   51 1
  83   44   95 1
  84   44   96 1
  85   45   46 1
  86   46   47 2
  87   46   48 1
  88   47   97 1
  89   48   49 1
  90   48   50 1
  91   48   98 1
  92   49   99 1
  93   49  100 1
  94   49  101 1
  95   50  102 1
  96   50  103 1
  97   50  104 1
  98   51   52 1
  99   51  105 1
 100   51  106 1
 101   52   53 1
 102   52   57 1
 103   53   54 1
 104   53  107 1
 105   53  108 1
 106   54   55 1
 107   54  109 1
 108   54  110 1
 109   55   56 1
 110   56   57 1
 111   56  111 1
 112   56  112 1
 113   57  113 1
 114   57  114 1
 115   58   64 am
 116   59   60 1
 117   59   64 1
 118   60   61 1
 119   60   62 1
 120   60   63 1
 121   61  115 1
 122   61  116 1
 123   61  117 1
 124   62  118 1
 125   62  119 1
 126   62  120 1
 127   63  121 1
 128   63  122 1
 129   63  123 1
 130   64   65 2

#	End of record

