#	Name: ASD01883433
#	Creating user name:	WinNT
#	Creation time:	15. 06. 2019 19:46

#	Modifying user name:	WinNT
#	Modification time:	15. 06. 2019 19:46

#	Program:	/corina/corina34_cracker 3.40 0067  02.08.2006

@<TRIPOS>MOLECULE
ASD01883433
  52   54    0    0    0
SMALL
NO_CHARGES


@<TRIPOS>ATOM
   1 N1            -0.1880     1.2320    -0.5917 N.am    
   2 C2            -0.8377     0.8409    -1.7038 C.2     
   3 C3            -2.1195     0.2507    -1.6012 C.2     
   4 C4            -2.6869     0.0867    -0.3263 C.2     
   5 C5            -1.9583     0.5157     0.7986 C.2     
   6 C6            -0.7357     1.0681     0.6406 C.2     
   7 O7            -0.3224     0.9953    -2.7981 O.2     
   8 C8            -2.8250    -0.1708    -2.7739 C.1     
   9 N9            -3.3847    -0.5052    -3.7042 N.1     
  10 N10           -3.9321    -0.4825    -0.1804 N.pl3   
  11 C11           -5.0563     0.3018     0.3484 C.3     
  12 C12           -5.6699    -0.4523     1.5323 C.3     
  13 C13           -6.0444    -1.8690     1.0908 C.3     
  14 C14           -4.7855    -2.6151     0.6429 C.3     
  15 C15           -4.1633    -1.8839    -0.5563 C.3     
  16 C16            1.1388     1.8412    -0.7123 C.3     
  17 C17            0.9926     3.3573    -0.8577 C.3     
  18 C18            2.3783     3.9935    -0.9836 C.3     
  19 C19            2.2321     5.5096    -1.1290 C.3     
  20 O20           -6.6467    -2.5648     2.1840 O.3     
  21 C21           -7.4929    -3.5809     1.8767 C.ar    
  22 C22           -8.1987    -4.2240     2.8863 C.ar    
  23 C23           -9.0580    -5.2557     2.5789 C.ar    
  24 C24           -9.2199    -5.6551     1.2495 C.ar    
  25 C25           -8.5084    -5.0052     0.2372 C.ar    
  26 C26           -7.6551    -3.9711     0.5528 C.ar    
  27 C27          -10.1118    -6.7275     0.9254 C.1     
  28 N28          -10.8194    -7.5782     0.6684 N.1     
  29 H29           -2.3749     0.3999     1.7882 H       
  30 H30           -0.1859     1.3936     1.5113 H       
  31 H31           -4.6977     1.2756     0.6818 H       
  32 H32           -5.8079     0.4337    -0.4299 H       
  33 H33           -4.9457    -0.5042     2.3454 H       
  34 H34           -6.5634     0.0707     1.8732 H       
  35 H35           -6.7497    -1.8163     0.2614 H       
  36 H36           -4.0697    -2.6466     1.4643 H       
  37 H37           -5.0496    -3.6315     0.3507 H       
  38 H38           -4.8434    -1.9322    -1.4068 H       
  39 H39           -3.2143    -2.3522    -0.8176 H       
  40 H40            1.7242     1.6165     0.1793 H       
  41 H41            1.6448     1.4392    -1.5901 H       
  42 H42            0.4072     3.5820    -1.7493 H       
  43 H43            0.4866     3.7593     0.0200 H       
  44 H44            2.9637     3.7688    -0.0921 H       
  45 H45            2.8843     3.5915    -1.8614 H       
  46 H46            1.6468     5.7343    -2.0206 H       
  47 H47            1.7261     5.9116    -0.2513 H       
  48 H48            3.2193     5.9629    -1.2188 H       
  49 H49           -8.0731    -3.9147     3.9134 H       
  50 H50           -9.6057    -5.7554     3.3642 H       
  51 H51           -8.6305    -5.3107    -0.7914 H       
  52 H52           -7.1052    -3.4681    -0.2288 H       
@<TRIPOS>BOND
   1    1    2 am
   2    1   16 1
   3    1    6 1
   4    2    3 1
   5    2    7 2
   6    3    4 2
   7    3    8 1
   8    4    5 1
   9    4   10 1
  10    5    6 2
  11    5   29 1
  12    6   30 1
  13    8    9 3
  14   10   11 1
  15   10   15 1
  16   11   12 1
  17   11   31 1
  18   11   32 1
  19   12   13 1
  20   12   33 1
  21   12   34 1
  22   13   14 1
  23   13   20 1
  24   13   35 1
  25   14   15 1
  26   14   36 1
  27   14   37 1
  28   15   38 1
  29   15   39 1
  30   16   17 1
  31   16   40 1
  32   16   41 1
  33   17   18 1
  34   17   42 1
  35   17   43 1
  36   18   19 1
  37   18   44 1
  38   18   45 1
  39   19   46 1
  40   19   47 1
  41   19   48 1
  42   20   21 1
  43   21   22 ar
  44   21   26 ar
  45   22   23 ar
  46   22   49 1
  47   23   24 ar
  48   23   50 1
  49   24   25 ar
  50   24   27 1
  51   25   26 ar
  52   25   51 1
  53   26   52 1
  54   27   28 3

#	End of record

