#	Name: ASD01816583
#	Creating user name:	WinNT
#	Creation time:	15. 06. 2019 19:35

#	Modifying user name:	WinNT
#	Modification time:	15. 06. 2019 19:35

#	Program:	/corina/corina34_cracker 3.40 0067  02.08.2006

@<TRIPOS>MOLECULE
ASD01816583
  58   63    0    0    0
SMALL
NO_CHARGES


@<TRIPOS>ATOM
   1 C1            -0.0167     1.3800     0.0096 C.ar    
   2 C2             0.0021    -0.0041     0.0020 C.ar    
   3 C3             1.1979    -0.6926    -0.0131 C.ar    
   4 C4             2.4035     0.0001    -0.0209 C.ar    
   5 C5             2.3866     1.4044    -0.0133 C.ar    
   6 C6             1.1719     2.0918     0.0021 C.ar    
   7 N7             3.6049    -0.6875    -0.0357 N.pl3   
   8 C8             4.7989    -0.0731    -0.0433 C.2     
   9 C9             4.9065     1.2952    -0.0375 C.2     
  10 C10            3.6761     2.1192    -0.0218 C.2     
  11 C11            6.0068     2.2543    -0.0425 C.2     
  12 N12            5.4384     3.4793    -0.0312 N.am    
  13 N13            4.0458     3.3680    -0.0189 N.2     
  14 C14            6.1439     4.6881    -0.0313 C.ar    
  15 O15            7.2003     2.0003    -0.0539 O.2     
  16 C16            3.5722    -2.1521    -0.0427 C.3     
  17 C17            3.5476    -2.6472    -1.4658 C.ar    
  18 C18            4.7344    -2.9005    -2.1288 C.ar    
  19 C19            4.7151    -3.3539    -3.4333 C.ar    
  20 C20            3.5025    -3.5557    -4.0788 C.ar    
  21 C21            2.3127    -3.3008    -3.4104 C.ar    
  22 C22            2.3383    -2.8525    -2.1042 C.ar    
  23 C23            5.9121     5.6295     0.9637 C.ar    
  24 N24            3.4797    -4.0153    -5.4029 N.pl3   
  25 C25            7.0813     4.9468    -1.0229 C.ar    
  26 C26            7.7761     6.1405    -1.0199 C.ar    
  27 C27            7.5393     7.0775    -0.0310 C.ar    
  28 C28            6.6102     6.8209     0.9609 C.ar    
  29 C29            2.3738    -4.2523    -6.1442 C.2     
  30 C30            2.7786    -4.6828    -7.3615 C.2     
  31 C31            4.1775    -4.7102    -7.3655 C.2     
  32 N32            4.5986    -4.3047    -6.1946 N.2     
  33 O33            1.1552     3.4500     0.0091 O.3     
  34 C34           -0.1258     4.0830     0.0248 C.3     
  35 C35            4.8997     5.3509     2.0446 C.3     
  36 H36           -0.9599     1.9061     0.0170 H       
  37 H37           -0.9292    -0.5510     0.0084 H       
  38 H38            1.1974    -1.7726    -0.0186 H       
  39 H39            5.6980    -0.6713    -0.0541 H       
  40 H40            4.4586    -2.5377     0.4609 H       
  41 H41            2.6791    -2.4981     0.4778 H       
  42 H42            5.6773    -2.7434    -1.6262 H       
  43 H43            5.6423    -3.5510    -3.9508 H       
  44 H44            1.3679    -3.4565    -3.9100 H       
  45 H45            1.4130    -2.6541    -1.5837 H       
  46 H46            7.2670     4.2151    -1.7953 H       
  47 H47            8.5054     6.3421    -1.7905 H       
  48 H48            8.0842     8.0100    -0.0307 H       
  49 H49            6.4273     7.5550     1.7317 H       
  50 H50            1.3512    -4.1220    -5.8222 H       
  51 H51            2.1354    -4.9569    -8.1847 H       
  52 H52            4.8024    -5.0100    -8.1939 H       
  53 H53            0.0037     5.1653     0.0290 H       
  54 H54           -0.6879     3.7878    -0.8612 H       
  55 H55           -0.6704     3.7788     0.9187 H       
  56 H56            5.3897     4.8546     2.8822 H       
  57 H57            4.4627     6.2901     2.3839 H       
  58 H58            4.1143     4.7066     1.6495 H       
@<TRIPOS>BOND
   1    1    2 ar
   2    1    6 ar
   3    1   36 1
   4    2    3 ar
   5    2   37 1
   6    3    4 ar
   7    3   38 1
   8    4    5 ar
   9    4    7 1
  10    5    6 ar
  11    5   10 1
  12    6   33 1
  13    7    8 1
  14    7   16 1
  15    8    9 2
  16    8   39 1
  17    9   10 1
  18    9   11 1
  19   10   13 2
  20   11   12 am
  21   11   15 2
  22   12   13 1
  23   12   14 1
  24   14   25 ar
  25   14   23 ar
  26   16   17 1
  27   16   40 1
  28   16   41 1
  29   17   18 ar
  30   17   22 ar
  31   18   19 ar
  32   18   42 1
  33   19   20 ar
  34   19   43 1
  35   20   21 ar
  36   20   24 1
  37   21   22 ar
  38   21   44 1
  39   22   45 1
  40   23   35 1
  41   23   28 ar
  42   24   29 1
  43   24   32 1
  44   25   26 ar
  45   25   46 1
  46   26   27 ar
  47   26   47 1
  48   27   28 ar
  49   27   48 1
  50   28   49 1
  51   29   30 2
  52   29   50 1
  53   30   31 1
  54   30   51 1
  55   31   32 2
  56   31   52 1
  57   33   34 1
  58   34   53 1
  59   34   54 1
  60   34   55 1
  61   35   56 1
  62   35   57 1
  63   35   58 1

#	End of record

