#	Name: ASD00843754
#	Creating user name:	WinNT
#	Creation time:	15. 06. 2019 18:47

#	Modifying user name:	WinNT
#	Modification time:	15. 06. 2019 18:47

#	Program:	/corina/corina34_cracker 3.40 0067  02.08.2006

@<TRIPOS>MOLECULE
ASD00843754
  92   97    0    0    0
SMALL
NO_CHARGES


@<TRIPOS>ATOM
   1 N1            -0.0159     1.3183     0.0093 N.ar    
   2 C2             0.0021    -0.0041     0.0020 C.ar    
   3 C3             1.2069    -0.6955    -0.0132 C.ar    
   4 C4             2.3925     0.0180    -0.0207 C.ar    
   5 C5             2.3308     1.4049    -0.0127 C.ar    
   6 C6             1.0980     2.0259     0.0025 C.ar    
   7 C7             1.2224    -2.2024    -0.0209 C.3     
   8 C8             0.4763    -2.7343    -1.2260 C.2     
   9 O9             2.5880    -2.6958    -0.0096 O.3     
  10 C10            3.3814    -2.3221    -1.0311 C.2     
  11 N11            4.6601    -2.7453    -1.0809 N.am    
  12 O12            2.9448    -1.6033    -1.9081 O.2     
  13 C13            5.5381    -2.3459    -2.1892 C.3     
  14 C14            6.1425    -3.6054    -2.8179 C.3     
  15 C15            6.8369    -4.4300    -1.7316 C.3     
  16 C16            5.8107    -4.8596    -0.6806 C.3     
  17 C17            5.2042    -3.6097    -0.0248 C.3     
  18 C18            7.4715    -5.6715    -2.3616 C.3     
  19 C19            8.4998    -5.2434    -3.4122 C.3     
  20 C20            9.1744    -6.4872    -3.9952 C.3     
  21 N21            9.8319    -7.2389    -2.9187 N.3     
  22 C22            8.8575    -7.7012    -1.9220 C.3     
  23 C23            8.1734    -6.4936    -1.2772 C.3     
  24 C24           10.6062    -8.3642    -3.4592 C.3     
  25 O25            0.7557    -2.5393    -2.3900 O.2     
  26 N26           -0.5539    -3.4626    -0.7638 N.am    
  27 C27            0.4501    -2.7460     1.1591 C.ar    
  28 C28           -0.5980    -3.4898     0.6311 C.ar    
  29 C29            0.6149    -2.6258     2.5206 C.ar    
  30 C30           -0.2710    -3.2513     3.3818 C.ar    
  31 C31           -1.3206    -3.9961     2.8679 C.ar    
  32 C32           -1.4864    -4.1171     1.5014 C.ar    
  33 Cl33          -0.0671    -3.1033     5.0994 Cl      
  34 F34           -2.1857    -4.6069     3.7068 F       
  35 C35           -1.0174    -5.8570    -2.0393 C.ar    
  36 C36            0.1602    -6.0221    -2.7534 C.ar    
  37 C37           -1.6942    -6.9621    -1.5601 C.ar    
  38 C38           -1.1983    -8.2317    -1.7914 C.ar    
  39 C39           -0.0245    -8.3990    -2.5031 C.ar    
  40 C40            0.6555    -7.2974    -2.9847 C.ar    
  41 H41            0.3608    -9.3918    -2.6825 H       
  42 O42            0.8275    -4.9367    -3.2262 O.3     
  43 C43            2.0331    -5.1822    -3.9529 C.3     
  44 C44           11.4702    -8.9682    -2.3503 C.3     
  45 C45           12.2766   -10.1402    -2.9133 C.3     
  46 S46           -1.6459    -4.2388    -1.7372 S.o2    
  47 O47           -2.8262    -4.4047    -0.9636 O.2     
  48 O48           -1.6238    -3.5603    -2.9856 O.2     
  49 O49           -1.1673    -0.6919     0.0099 O.3     
  50 C50           -2.3720     0.0766     0.0260 C.3     
  51 C51           -3.5777    -0.8652     0.0330 C.3     
  52 F52           -3.5507    -1.6659    -1.1140 F       
  53 F53           -3.5280    -1.6782     1.1704 F       
  54 H54            3.3442    -0.4925    -0.0322 H       
  55 H55            3.2375     1.9916    -0.0178 H       
  56 H56            1.0444     3.1046     0.0084 H       
  57 H57            4.9588    -1.8057    -2.9380 H       
  58 H58            6.3363    -1.7072    -1.8110 H       
  59 H59            5.3512    -4.1992    -3.2754 H       
  60 H60            6.8694    -3.3196    -3.5781 H       
  61 H61            7.6116    -3.8273    -1.2576 H       
  62 H62            5.0225    -5.4416    -1.1583 H       
  63 H63            6.3014    -5.4664     0.0803 H       
  64 H64            5.9766    -3.0766     0.5294 H       
  65 H65            4.4031    -3.9050     0.6529 H       
  66 H66            6.6975    -6.2760    -2.8345 H       
  67 H67            7.9986    -4.6939    -4.2092 H       
  68 H68            9.2516    -4.6059    -2.9470 H       
  69 H69            8.4239    -7.1175    -4.4723 H       
  70 H70            9.9173    -6.1851    -4.7334 H       
  71 H71            8.1086    -8.3258    -2.4089 H       
  72 H72            9.3703    -8.2809    -1.1545 H       
  73 H73            8.9201    -5.8758    -0.7783 H       
  74 H74            7.4391    -6.8374    -0.5487 H       
  75 H75            9.9246    -9.1232    -3.8429 H       
  76 H76           11.2470    -8.0097    -4.2666 H       
  77 H77            1.4345    -2.0447     2.9166 H       
  78 H78           -2.3067    -4.6987     1.1074 H       
  79 H79           -2.6111    -6.8340    -1.0040 H       
  80 H80           -1.7284    -9.0942    -1.4154 H       
  81 H81            1.5719    -7.4287    -3.5410 H       
  82 H82            2.7428    -5.7064    -3.3129 H       
  83 H83            1.8120    -5.7939    -4.8276 H       
  84 H84            2.4642    -4.2335    -4.2727 H       
  85 H85           12.1518    -8.2091    -1.9666 H       
  86 H86           10.8294    -9.3226    -1.5429 H       
  87 H87           11.5950   -10.8992    -3.2970 H       
  88 H88           12.9174    -9.7857    -3.7208 H       
  89 H89           12.8921   -10.5705    -2.1233 H       
  90 H90           -2.3931     0.7004     0.9196 H       
  91 H91           -2.4108     0.7099    -0.8602 H       
  92 H92           -4.4966    -0.2790     0.0452 H       
@<TRIPOS>BOND
   1    1    2 ar
   2    1    6 ar
   3    2    3 ar
   4    2   49 1
   5    3    4 ar
   6    3    7 1
   7    4    5 ar
   8    4   54 1
   9    5    6 ar
  10    5   55 1
  11    6   56 1
  12    7    8 1
  13    7    9 1
  14    7   27 1
  15    8   25 2
  16    8   26 am
  17    9   10 1
  18   10   11 am
  19   10   12 2
  20   11   13 1
  21   11   17 1
  22   13   14 1
  23   13   57 1
  24   13   58 1
  25   14   15 1
  26   14   59 1
  27   14   60 1
  28   15   16 1
  29   15   18 1
  30   15   61 1
  31   16   17 1
  32   16   62 1
  33   16   63 1
  34   17   64 1
  35   17   65 1
  36   18   19 1
  37   18   23 1
  38   18   66 1
  39   19   20 1
  40   19   67 1
  41   19   68 1
  42   20   21 1
  43   20   69 1
  44   20   70 1
  45   21   22 1
  46   21   24 1
  47   22   23 1
  48   22   71 1
  49   22   72 1
  50   23   73 1
  51   23   74 1
  52   24   44 1
  53   24   75 1
  54   24   76 1
  55   26   46 am
  56   26   28 1
  57   27   28 ar
  58   27   29 ar
  59   28   32 ar
  60   29   30 ar
  61   29   77 1
  62   30   31 ar
  63   30   33 1
  64   31   32 ar
  65   31   34 1
  66   32   78 1
  67   35   36 ar
  68   35   37 ar
  69   35   46 1
  70   36   42 1
  71   36   40 ar
  72   37   38 ar
  73   37   79 1
  74   38   39 ar
  75   38   80 1
  76   39   40 ar
  77   39   41 1
  78   40   81 1
  79   42   43 1
  80   43   82 1
  81   43   83 1
  82   43   84 1
  83   44   45 1
  84   44   85 1
  85   44   86 1
  86   45   87 1
  87   45   88 1
  88   45   89 1
  89   46   47 2
  90   46   48 2
  91   49   50 1
  92   50   51 1
  93   50   90 1
  94   50   91 1
  95   51   52 1
  96   51   53 1
  97   51   92 1

#	End of record

