#	Name: ASD01912785
#	Creating user name:	WinNT
#	Creation time:	15. 06. 2019 20:00

#	Modifying user name:	WinNT
#	Modification time:	15. 06. 2019 20:00

#	Program:	/corina/corina34_cracker 3.40 0067  02.08.2006

@<TRIPOS>MOLECULE
ASD01912785
  48   51    0    0    0
SMALL
NO_CHARGES


@<TRIPOS>ATOM
   1 C1             0.1702     1.3690     0.6637 C.ar    
   2 C2             0.1854    -0.0147     0.6529 C.ar    
   3 C3             1.2365    -0.6750     0.0218 C.ar    
   4 N4             2.2087     0.0091    -0.5604 N.ar    
   5 C5             2.2196     1.3290    -0.5653 C.ar    
   6 C6             1.2097     2.0479     0.0412 C.ar    
   7 Cl7           -1.0878    -0.9148     1.4159 Cl      
   8 N8             1.2653    -2.0652     0.0034 N.3     
   9 C9             2.6417    -2.5616    -0.1268 C.3     
  10 C10            0.4045    -2.5955    -1.0624 C.3     
  11 C11            0.3207    -4.1203    -0.9354 C.3     
  12 N12            1.6875    -4.6630    -0.9120 N.am    
  13 C13            2.6496    -4.0850     0.0385 C.3     
  14 C14            2.0487    -5.6638    -1.7393 C.2     
  15 O15            1.2172    -6.1959    -2.4490 O.2     
  16 N16            3.3316    -6.0748    -1.7799 N.am    
  17 C17            3.6828    -7.1751    -2.5455 C.2     
  18 S18            5.3125    -7.8185    -2.6897 S.3     
  19 C19            4.7337    -9.0793    -3.7760 C.ar    
  20 C20            3.3557    -8.9172    -3.9458 C.ar    
  21 N21            2.8610    -7.8743    -3.2475 N.2     
  22 C22            5.4076   -10.1133    -4.4217 C.ar    
  23 C23            4.7174   -10.9888    -5.2369 C.ar    
  24 C24            3.3455   -10.8366    -5.4130 C.ar    
  25 C25            2.6702    -9.8225    -4.7834 C.ar    
  26 O26            5.3774   -11.9973    -5.8667 O.3     
  27 C27            4.5993   -12.8644    -6.6942 C.3     
  28 C28            5.5075   -13.9286    -7.3137 C.3     
  29 H29           -0.6341     1.9087     1.1414 H       
  30 H30            3.0298     1.8533    -1.0501 H       
  31 H31            1.2273     3.1277     0.0315 H       
  32 H32            3.0310    -2.3005    -1.1108 H       
  33 H33            3.2660    -2.1089     0.6436 H       
  34 H34           -0.5937    -2.1674    -0.9705 H       
  35 H35            0.8250    -2.3339    -2.0334 H       
  36 H36           -0.1935    -4.3830    -0.0109 H       
  37 H37           -0.2212    -4.5295    -1.7881 H       
  38 H38            3.6474    -4.4708    -0.1702 H       
  39 H39            2.3593    -4.3443     1.0567 H       
  40 H40            4.0091    -5.6004    -1.2732 H       
  41 H41            6.4725   -10.2304    -4.2848 H       
  42 H42            2.8080   -11.5225    -6.0510 H       
  43 H43            1.6054    -9.7162    -4.9294 H       
  44 H44            3.8308   -13.3486    -6.0917 H       
  45 H45            4.1273   -12.2835    -7.4866 H       
  46 H46            4.9140   -14.5900    -7.9449 H       
  47 H47            6.2760   -13.4444    -7.9162 H       
  48 H48            5.9794   -14.5095    -6.5213 H       
@<TRIPOS>BOND
   1    1    2 ar
   2    1    6 ar
   3    1   29 1
   4    2    3 ar
   5    2    7 1
   6    3    4 ar
   7    3    8 1
   8    4    5 ar
   9    5    6 ar
  10    5   30 1
  11    6   31 1
  12    8    9 1
  13    8   10 1
  14    9   13 1
  15    9   32 1
  16    9   33 1
  17   10   11 1
  18   10   34 1
  19   10   35 1
  20   11   12 1
  21   11   36 1
  22   11   37 1
  23   12   13 1
  24   12   14 am
  25   13   38 1
  26   13   39 1
  27   14   15 2
  28   14   16 am
  29   16   17 1
  30   16   40 1
  31   17   18 1
  32   17   21 2
  33   18   19 1
  34   19   20 ar
  35   19   22 ar
  36   20   21 1
  37   20   25 ar
  38   22   23 ar
  39   22   41 1
  40   23   24 ar
  41   23   26 1
  42   24   25 ar
  43   24   42 1
  44   25   43 1
  45   26   27 1
  46   27   28 1
  47   27   44 1
  48   27   45 1
  49   28   46 1
  50   28   47 1
  51   28   48 1

#	End of record

