#	Name: ASD07301386
#	Creating user name:	WinNT
#	Creation time:	15. 06. 2019 21:11

#	Modifying user name:	WinNT
#	Modification time:	15. 06. 2019 21:11

#	Program:	/corina/corina34_cracker 3.40 0067  02.08.2006

@<TRIPOS>MOLECULE
ASD07301386
  43   44    0    0    0
SMALL
NO_CHARGES


@<TRIPOS>ATOM
   1 C1            -0.0178     1.4647     0.0101 C.2     
   2 C2             0.0021    -0.0041     0.0020 C.2     
   3 C3             1.2763    -0.6365    -0.0135 C.2     
   4 C4             2.3780     0.1594    -0.0198 C.2     
   5 N5             2.2574     1.5097    -0.0109 N.pl3   
   6 N6             1.1280     2.1155     0.0026 N.2     
   7 O7            -1.0318    -0.6550     0.0088 O.2     
   8 O8             1.3883    -1.9914    -0.0215 O.3     
   9 C9             2.7106    -2.5330    -0.0370 C.3     
  10 C10           -1.3000     2.1994     0.0202 C.2     
  11 C11           -1.3046     3.6122     0.0279 C.2     
  12 C12           -2.4775     4.2843     0.0372 C.2     
  13 O13           -2.3532     1.5868     0.0219 O.2     
  14 N14           -2.4819     5.6497     0.0446 N.pl3   
  15 C15           -1.2155     6.3863     0.0426 C.3     
  16 C16           -3.7529     6.3781     0.0546 C.3     
  17 C17            3.4245     2.2806    -0.0170 C.ar    
  18 C18            3.6355     3.2377     0.9748 C.ar    
  19 C19            4.7941     3.9978     0.9633 C.ar    
  20 C20            5.7367     3.8069    -0.0296 C.ar    
  21 C21            5.5279     2.8581    -1.0139 C.ar    
  22 C22            4.3787     2.0913    -1.0071 C.ar    
  23 O23            2.7074     3.4248     1.9497 O.3     
  24 C24            2.9910     4.4226     2.9325 C.3     
  25 F25            4.1766     4.0963     3.5998 F       
  26 F26            3.1350     5.6657     2.3070 F       
  27 H27            3.3605    -0.2888    -0.0316 H       
  28 H28            3.2329    -2.1908    -0.9304 H       
  29 H29            3.2502    -2.1997     0.8494 H       
  30 H30            2.6573    -3.6217    -0.0420 H       
  31 H31           -0.3710     4.1552     0.0264 H       
  32 H32           -3.4110     3.7413     0.0387 H       
  33 H33           -0.9064     6.5746    -0.9856 H       
  34 H34           -1.3465     7.3355     0.5622 H       
  35 H35           -0.4516     5.7969     0.5496 H       
  36 H36           -4.5791     5.6671     0.0547 H       
  37 H37           -3.8085     6.9997     0.9483 H       
  38 H38           -3.8170     7.0094    -0.8316 H       
  39 H39            4.9605     4.7399     1.7302 H       
  40 H40            6.6388     4.4007    -0.0368 H       
  41 H41            6.2673     2.7135    -1.7878 H       
  42 H42            4.2208     1.3479    -1.7744 H       
  43 H43            2.1715     4.4695     3.6497 H       
@<TRIPOS>BOND
   1    1    2 1
   2    1    6 2
   3    1   10 1
   4    2    3 1
   5    2    7 2
   6    3    4 2
   7    3    8 1
   8    4    5 1
   9    4   27 1
  10    5    6 1
  11    5   17 1
  12    8    9 1
  13    9   28 1
  14    9   29 1
  15    9   30 1
  16   10   11 1
  17   10   13 2
  18   11   12 2
  19   11   31 1
  20   12   14 1
  21   12   32 1
  22   14   15 1
  23   14   16 1
  24   15   33 1
  25   15   34 1
  26   15   35 1
  27   16   36 1
  28   16   37 1
  29   16   38 1
  30   17   18 ar
  31   17   22 ar
  32   18   19 ar
  33   18   23 1
  34   19   20 ar
  35   19   39 1
  36   20   21 ar
  37   20   40 1
  38   21   22 ar
  39   21   41 1
  40   22   42 1
  41   23   24 1
  42   24   25 1
  43   24   26 1
  44   24   43 1

#	End of record

