#	Name: ASD05430224
#	Creating user name:	WinNT
#	Creation time:	15. 06. 2019 21:00

#	Modifying user name:	WinNT
#	Modification time:	15. 06. 2019 21:00

#	Program:	/corina/corina34_cracker 3.40 0067  02.08.2006

@<TRIPOS>MOLECULE
ASD05430224
  61   67    0    0    0
SMALL
NO_CHARGES


@<TRIPOS>ATOM
   1 C1            -0.0690     1.2219    -0.3117 C.ar    
   2 C2            -0.0153    -0.0174     0.3253 C.ar    
   3 C3            -1.1664    -0.5730     0.8691 C.ar    
   4 C4            -2.3667     0.0978     0.7817 C.ar    
   5 C5            -2.4282     1.3412     0.1443 C.ar    
   6 C6            -1.2686     1.9028    -0.3985 C.ar    
   7 C7            -4.8901    -0.1385    -0.2290 C.3     
   8 C8            -4.8620     1.3704    -0.0439 C.2     
   9 C9            -3.7098     2.0594     0.0500 C.2     
  10 C10           -5.9940    -0.4677    -1.2428 C.3     
  11 C11           -7.4034    -0.0008    -0.8585 C.3     
  12 N12           -7.3397     1.3982    -0.4393 N.pl3   
  13 C13           -6.1832     2.0319     0.0259 C.2     
  14 N14            1.2029    -0.7043     0.4165 N.pl3   
  15 C15            2.0647    -0.9586    -0.6021 C.2     
  16 C16            1.7525    -1.2412     1.5518 C.2     
  17 C17            2.9202    -1.8064     1.1902 C.2     
  18 N18            3.0856    -1.6193    -0.1276 N.2     
  19 C19            3.8775    -2.5218     2.1082 C.3     
  20 C20           -8.3872     2.4095    -0.4182 C.3     
  21 O21           -7.8669     3.4406     0.4310 O.3     
  22 N22           -6.4665     3.1994     0.5051 N.2     
  23 C23           -8.7281     2.9205    -1.7782 C.ar    
  24 C24          -10.0907     2.6938    -2.0020 C.ar    
  25 N25          -10.6932     2.0780    -0.9179 N.pl3   
  26 C26           -9.6999     1.8508     0.1438 C.3     
  27 C27           -7.9239     3.5251    -2.7275 C.ar    
  28 C28           -8.5230     3.9028    -3.9224 C.ar    
  29 C29           -9.8677     3.6845    -4.1540 C.ar    
  30 C30          -10.6825     3.0780    -3.2088 C.ar    
  31 F31          -10.4031     4.0714    -5.3325 F       
  32 C32           -5.6206    -0.4468    -2.7246 C.3     
  33 C33           -5.8715    -1.7801    -2.0168 C.3     
  34 O34            1.0596     1.7629    -0.8425 O.3     
  35 C35            0.9313     3.0352    -1.4803 C.3     
  36 H36           -1.1204    -1.5332     1.3612 H       
  37 H37           -3.2602    -0.3367     1.2052 H       
  38 H38           -1.3116     2.8628    -0.8915 H       
  39 H39           -3.9273    -0.4818    -0.6074 H       
  40 H40           -5.1071    -0.6230     0.7230 H       
  41 H41           -3.7253     3.1393     0.0561 H       
  42 H42           -8.0663    -0.0945    -1.7186 H       
  43 H43           -7.7791    -0.6113    -0.0373 H       
  44 H44            1.9282    -0.6635    -1.6320 H       
  45 H45            1.3304    -1.2156     2.5456 H       
  46 H46            3.6222    -3.5809     2.1455 H       
  47 H47            4.8947    -2.4063     1.7340 H       
  48 H48            3.8080    -2.0958     3.1091 H       
  49 H49          -11.6305     1.8336    -0.8657 H       
  50 H50           -9.6013     0.7848     0.3488 H       
  51 H51           -9.9834     2.3873     1.0493 H       
  52 H52           -6.8731     3.6968    -2.5468 H       
  53 H53           -7.9252     4.3775    -4.6864 H       
  54 H54          -11.7327     2.9104    -3.3974 H       
  55 H55           -6.3768    -0.1010    -3.4294 H       
  56 H56           -4.5905    -0.1988    -2.9807 H       
  57 H57           -5.0064    -2.4093    -1.8071 H       
  58 H58           -6.7927    -2.3115    -2.2558 H       
  59 H59            1.9032     3.3515    -1.8591 H       
  60 H60            0.2266     2.9571    -2.3083 H       
  61 H61            0.5661     3.7675    -0.7603 H       
@<TRIPOS>BOND
   1    1    2 ar
   2    1   34 1
   3    1    6 ar
   4    2    3 ar
   5    2   14 1
   6    3    4 ar
   7    3   36 1
   8    4    5 ar
   9    4   37 1
  10    5    6 ar
  11    5    9 1
  12    6   38 1
  13    7    8 1
  14    7   10 1
  15    7   39 1
  16    7   40 1
  17    8    9 2
  18    8   13 1
  19    9   41 1
  20   10   11 1
  21   10   32 1
  22   10   33 1
  23   11   12 1
  24   11   42 1
  25   11   43 1
  26   12   13 1
  27   12   20 1
  28   13   22 2
  29   14   15 1
  30   14   16 1
  31   15   18 2
  32   15   44 1
  33   16   17 2
  34   16   45 1
  35   17   18 1
  36   17   19 1
  37   19   46 1
  38   19   47 1
  39   19   48 1
  40   20   21 1
  41   20   23 1
  42   20   26 1
  43   21   22 1
  44   23   24 ar
  45   23   27 ar
  46   24   25 1
  47   24   30 ar
  48   25   26 1
  49   25   49 1
  50   26   50 1
  51   26   51 1
  52   27   28 ar
  53   27   52 1
  54   28   29 ar
  55   28   53 1
  56   29   30 ar
  57   29   31 1
  58   30   54 1
  59   32   33 1
  60   32   55 1
  61   32   56 1
  62   33   57 1
  63   33   58 1
  64   34   35 1
  65   35   59 1
  66   35   60 1
  67   35   61 1

#	End of record

