#	Name: ASD01811275
#	Creating user name:	WinNT
#	Creation time:	15. 06. 2019 19:26

#	Modifying user name:	WinNT
#	Modification time:	15. 06. 2019 19:26

#	Program:	/corina/corina34_cracker 3.40 0067  02.08.2006

@<TRIPOS>MOLECULE
ASD01811275
  65   70    0    0    0
SMALL
NO_CHARGES


@<TRIPOS>ATOM
   1 C1            -0.2288     1.2670    -0.1706 C.ar    
   2 C2            -0.3449    -0.1087    -0.3498 C.ar    
   3 N3            -1.6887    -0.4675    -0.4755 N.am    
   4 C4            -2.5091     0.5974    -0.3907 C.2     
   5 C5            -1.6327     1.8022    -0.1806 C.3     
   6 C6            -1.9771     2.5272     1.1229 C.3     
   7 N7            -2.3153     3.9226     0.7574 N.3     
   8 C8            -2.7754     3.8723    -0.6549 C.3     
   9 C9            -1.8246     2.8325    -1.3045 C.3     
  10 C10           -3.3658     4.4568     1.6345 C.3     
  11 C11           -2.8480     4.5500     3.0805 C.3     
  12 C12           -2.9196     6.0386     3.4791 C.3     
  13 C13           -3.9985     6.6320     2.5395 C.3     
  14 C14           -3.7339     5.8919     1.2048 C.3     
  15 C15            1.0080     1.8532    -0.0239 C.ar    
  16 C16            2.1516     1.0741    -0.0532 C.ar    
  17 C17            2.0483    -0.2932    -0.2298 C.ar    
  18 C18            0.8107    -0.8851    -0.3769 C.ar    
  19 O19           -3.7196     0.5867    -0.4652 O.2     
  20 C20           -2.1523    -1.8426    -0.6768 C.3     
  21 C21           -2.3960    -2.4915     0.6614 C.ar    
  22 C22           -3.5696    -2.2325     1.3510 C.ar    
  23 C23           -3.7966    -2.8254     2.5789 C.ar    
  24 C24           -2.8433    -3.6840     3.1211 C.ar    
  25 C25           -1.6658    -3.9405     2.4226 C.ar    
  26 C26           -1.4504    -3.3477     1.1944 C.ar    
  27 F27           -4.4927    -1.3993     0.8230 F       
  28 C28           -3.0812    -4.3235     4.4398 C.2     
  29 C29           -2.2373    -5.1801     5.0844 C.2     
  30 N30           -2.8221    -5.5306     6.2476 N.pl3   
  31 N31           -4.0581    -4.8780     6.3301 N.2     
  32 C32           -4.2163    -4.1512     5.2557 C.2     
  33 C33           -2.2613    -6.4381     7.2517 C.3     
  34 C34           -2.2187    -5.7333     8.6090 C.3     
  35 H35           -2.8320     2.0492     1.6011 H       
  36 H36           -1.1187     2.5152     1.7945 H       
  37 H37           -3.8101     3.5341    -0.7102 H       
  38 H38           -2.6624     4.8464    -1.1308 H       
  39 H39           -0.8738     3.2930    -1.5731 H       
  40 H40           -2.2919     2.3723    -2.1751 H       
  41 H41           -4.2470     3.8165     1.5940 H       
  42 H42           -3.4785     3.9557     3.7419 H       
  43 H43           -1.8174     4.1990     3.1315 H       
  44 H44           -3.2233     6.1404     4.5209 H       
  45 H45           -1.9586     6.5250     3.3116 H       
  46 H46           -4.9988     6.4111     2.9118 H       
  47 H47           -3.8582     7.7063     2.4199 H       
  48 H48           -2.9044     6.3546     0.6700 H       
  49 H49           -4.6318     5.8867     0.5869 H       
  50 H50            1.0861     2.9215     0.1137 H       
  51 H51            3.1224     1.5333     0.0612 H       
  52 H52            2.9408    -0.9010    -0.2526 H       
  53 H53            0.7381    -1.9539    -0.5144 H       
  54 H54           -3.0792    -1.8333    -1.2502 H       
  55 H55           -1.3940    -2.4057    -1.2209 H       
  56 H56           -4.7110    -2.6230     3.1168 H       
  57 H57           -0.9238    -4.6053     2.8395 H       
  58 H58           -0.5376    -3.5469     0.6527 H       
  59 H59           -1.2753    -5.5168     4.7274 H       
  60 H60           -5.0714    -3.5314     5.0296 H       
  61 H61           -2.8847    -7.3293     7.3244 H       
  62 H62           -1.2511    -6.7243     6.9589 H       
  63 H63           -1.5953    -4.8421     8.5362 H       
  64 H64           -3.2289    -5.4472     8.9017 H       
  65 H65           -1.8014    -6.4085     9.3560 H       
@<TRIPOS>BOND
   1    1    2 ar
   2    1   15 ar
   3    1    5 1
   4    2    3 1
   5    2   18 ar
   6    3    4 am
   7    3   20 1
   8    4    5 1
   9    4   19 2
  10    5    6 1
  11    5    9 1
  12    6    7 1
  13    6   35 1
  14    6   36 1
  15    7    8 1
  16    7   10 1
  17    8    9 1
  18    8   37 1
  19    8   38 1
  20    9   39 1
  21    9   40 1
  22   10   11 1
  23   10   14 1
  24   10   41 1
  25   11   12 1
  26   11   42 1
  27   11   43 1
  28   12   13 1
  29   12   44 1
  30   12   45 1
  31   13   14 1
  32   13   46 1
  33   13   47 1
  34   14   48 1
  35   14   49 1
  36   15   16 ar
  37   15   50 1
  38   16   17 ar
  39   16   51 1
  40   17   18 ar
  41   17   52 1
  42   18   53 1
  43   20   21 1
  44   20   54 1
  45   20   55 1
  46   21   22 ar
  47   21   26 ar
  48   22   23 ar
  49   22   27 1
  50   23   24 ar
  51   23   56 1
  52   24   25 ar
  53   24   28 1
  54   25   26 ar
  55   25   57 1
  56   26   58 1
  57   28   29 2
  58   28   32 1
  59   29   30 1
  60   29   59 1
  61   30   31 1
  62   30   33 1
  63   31   32 2
  64   32   60 1
  65   33   34 1
  66   33   61 1
  67   33   62 1
  68   34   63 1
  69   34   64 1
  70   34   65 1

#	End of record

