#	Name: ASD03930083
#	Creating user name:	WinNT
#	Creation time:	15. 06. 2019 20:47

#	Modifying user name:	WinNT
#	Modification time:	15. 06. 2019 20:47

#	Program:	/corina/corina34_cracker 3.40 0067  02.08.2006

@<TRIPOS>MOLECULE
ASD03930083
  36   37    0    0    0
SMALL
NO_CHARGES


@<TRIPOS>ATOM
   1 C1             1.8783     1.3696     0.9522 C.ar    
   2 C2             1.8881    -0.0094     0.9138 C.ar    
   3 C3             1.2143    -0.6814    -0.0906 C.ar    
   4 C4             0.5266     0.0238    -1.0623 C.ar    
   5 C5             0.5092     1.4030    -1.0357 C.ar    
   6 C6             1.1866     2.0869    -0.0250 C.ar    
   7 C7             1.1718     3.5649     0.0100 C.2     
   8 O8             2.2142     4.1808     0.1177 O.2     
   9 N9             0.0025     4.2294    -0.0774 N.am    
  10 C10           -1.2569     3.5034    -0.2909 C.3     
  11 C11           -2.3977     5.4319     0.8133 C.3     
  12 C12           -1.0434     6.0688     1.1379 C.3     
  13 C13           -0.0378     5.6930     0.0451 C.3     
  14 C14            1.2297    -2.1878    -0.1265 C.3     
  15 C15           -2.2510     3.9086     0.8020 C.3     
  16 O16            0.1254    -2.6937     0.6261 O.3     
  17 C17            0.0471    -4.1202     0.6561 C.3     
  18 H18            2.4010     1.8928     1.7393 H       
  19 H19            2.4233    -0.5657     1.6692 H       
  20 H20            0.0026    -0.5067    -1.8436 H       
  21 H21           -0.0273     1.9522    -1.7952 H       
  22 H22           -1.6648     3.7591    -1.2689 H       
  23 H23           -1.0735     2.4303    -0.2385 H       
  24 H24           -3.1243     5.7159     1.5745 H       
  25 H25           -2.7385     5.7803    -0.1617 H       
  26 H26           -1.1496     7.1532     1.1698 H       
  27 H27           -0.6944     5.7084     2.1056 H       
  28 H28            0.9508     6.0644     0.3148 H       
  29 H29           -0.3485     6.1307    -0.9036 H       
  30 H30            1.1515    -2.5274    -1.1593 H       
  31 H31            2.1615    -2.5521     0.3061 H       
  32 H32           -3.2196     3.4513     0.6004 H       
  33 H33           -1.8835     3.5713     1.7712 H       
  34 H34           -0.0557    -4.4999    -0.3604 H       
  35 H35            0.9544    -4.5245     1.1050 H       
  36 H36           -0.8171    -4.4243     1.2467 H       
@<TRIPOS>BOND
   1    1    2 ar
   2    1    6 ar
   3    1   18 1
   4    2    3 ar
   5    2   19 1
   6    3    4 ar
   7    3   14 1
   8    4    5 ar
   9    4   20 1
  10    5    6 ar
  11    5   21 1
  12    6    7 1
  13    7    8 2
  14    7    9 am
  15    9   10 1
  16    9   13 1
  17   10   15 1
  18   10   22 1
  19   10   23 1
  20   11   12 1
  21   11   15 1
  22   11   24 1
  23   11   25 1
  24   12   13 1
  25   12   26 1
  26   12   27 1
  27   13   28 1
  28   13   29 1
  29   14   16 1
  30   14   30 1
  31   14   31 1
  32   15   32 1
  33   15   33 1
  34   16   17 1
  35   17   34 1
  36   17   35 1
  37   17   36 1

#	End of record

