#	Name: ASD02038551
#	Creating user name:	WinNT
#	Creation time:	15. 06. 2019 20:16

#	Modifying user name:	WinNT
#	Modification time:	15. 06. 2019 20:16

#	Program:	/corina/corina34_cracker 3.40 0067  02.08.2006

@<TRIPOS>MOLECULE
ASD02038551
  51   53    0    0    0
SMALL
NO_CHARGES


@<TRIPOS>ATOM
   1 Cl1           -5.0968     3.4630     5.9492 Cl      
   2 C2            -0.0179     1.4653     0.0101 C.3     
   3 N3             0.0021    -0.0041     0.0020 N.3     
   4 C4             0.7482    -0.5141    -1.1561 C.3     
   5 C5            -1.3634    -0.5466     0.0292 C.3     
   6 C6            -2.0795    -0.0557     1.2896 C.3     
   7 N7            -2.0994     1.4137     1.2977 N.3     
   8 C8            -2.8092     1.8989     2.3994 C.ar    
   9 C9            -4.1237     1.5024     2.6097 C.ar    
  10 C10           -4.8228     1.9835     3.6993 C.ar    
  11 C11           -4.2149     2.8598     4.5810 C.ar    
  12 C12           -2.9054     3.2565     4.3739 C.ar    
  13 C13           -2.1997     2.7741     3.2892 C.ar    
  14 C14           -0.7339     1.9562     1.2705 C.3     
  15 C15            0.5399    -2.0254    -1.2716 C.3     
  16 C16            1.3170    -2.5566    -2.4778 C.3     
  17 O17            1.0304    -3.9453    -2.6551 O.3     
  18 O18            1.0110    -2.6634    -0.0829 O.3     
  19 C19            1.6453    -4.5751    -3.6916 C.ar    
  20 C20            1.4117    -5.9229    -3.9210 C.ar    
  21 C21            2.5015    -3.8684    -4.5229 C.ar    
  22 C22            3.1261    -4.5081    -5.5758 C.ar    
  23 C23            2.8973    -5.8574    -5.8015 C.ar    
  24 C24            2.0363    -6.5627    -4.9739 C.ar    
  25 O25            3.5118    -6.4871    -6.8383 O.3     
  26 C26            1.4174     1.9954    -0.0008 C.3     
  27 H27           -0.5457     1.8267    -0.8725 H       
  28 H28            0.3889    -0.0274    -2.0628 H       
  29 H29            1.8096    -0.3024    -1.0263 H       
  30 H30           -1.9068    -0.2080    -0.8529 H       
  31 H31           -1.3219    -1.6358     0.0354 H       
  32 H32           -3.1020    -0.4333     1.2974 H       
  33 H33           -1.5514    -0.4171     2.1720 H       
  34 H34           -4.5987     0.8188     1.9216 H       
  35 H35           -5.8450     1.6758     3.8631 H       
  36 H36           -2.4336     3.9408     5.0635 H       
  37 H37           -1.1777     3.0838     3.1282 H       
  38 H38           -0.1905     1.6177     2.1527 H       
  39 H39           -0.7754     3.0454     1.2643 H       
  40 H40           -0.5214    -2.2371    -1.4013 H       
  41 H41            1.0206    -2.0075    -3.3714 H       
  42 H42            2.3857    -2.4249    -2.3081 H       
  43 H43            1.9501    -2.5177     0.0960 H       
  44 H44            0.7418    -6.4723    -3.2761 H       
  45 H45            2.6797    -2.8178    -4.3472 H       
  46 H46            3.7922    -3.9577    -6.2236 H       
  47 H47            1.8585    -7.6134    -5.1494 H       
  48 H48            4.3693    -6.8725    -6.6119 H       
  49 H49            1.9277     1.6440    -0.8976 H       
  50 H50            1.4022     3.0852     0.0052 H       
  51 H51            1.9447     1.6344     0.8823 H       
@<TRIPOS>BOND
   1    1   11 1
   2    2    3 1
   3    2   26 1
   4    2   14 1
   5    2   27 1
   6    3    4 1
   7    3    5 1
   8    4   15 1
   9    4   28 1
  10    4   29 1
  11    5    6 1
  12    5   30 1
  13    5   31 1
  14    6    7 1
  15    6   32 1
  16    6   33 1
  17    7    8 1
  18    7   14 1
  19    8    9 ar
  20    8   13 ar
  21    9   10 ar
  22    9   34 1
  23   10   11 ar
  24   10   35 1
  25   11   12 ar
  26   12   13 ar
  27   12   36 1
  28   13   37 1
  29   14   38 1
  30   14   39 1
  31   15   16 1
  32   15   18 1
  33   15   40 1
  34   16   17 1
  35   16   41 1
  36   16   42 1
  37   17   19 1
  38   18   43 1
  39   19   20 ar
  40   19   21 ar
  41   20   24 ar
  42   20   44 1
  43   21   22 ar
  44   21   45 1
  45   22   23 ar
  46   22   46 1
  47   23   24 ar
  48   23   25 1
  49   24   47 1
  50   25   48 1
  51   26   49 1
  52   26   50 1
  53   26   51 1

#	End of record

