#	Name: ASD01478103
#	Creating user name:	WinNT
#	Creation time:	15. 06. 2019 19:21

#	Modifying user name:	WinNT
#	Modification time:	15. 06. 2019 19:21

#	Program:	/corina/corina34_cracker 3.40 0067  02.08.2006

@<TRIPOS>MOLECULE
ASD01478103
  58   61    0    0    0
SMALL
NO_CHARGES


@<TRIPOS>ATOM
   1 O1             0.4730     2.3507    -2.3040 O.3     
   2 C2             0.1878     1.0286    -2.6597 C.3     
   3 O3            -0.4375     0.2782    -1.6304 O.3     
   4 C4             0.4081    -0.1524    -0.5883 C.3     
   5 O5             0.9482     0.9613     0.0979 O.3     
   6 C6             2.0133     1.6783    -0.4595 C.3     
   7 C7             1.6089     2.6602    -1.5459 C.3     
   8 C8             1.4634     4.0202    -0.8256 C.3     
   9 C9             2.6407     3.9836     0.1835 C.3     
  10 C10            2.6991     2.5126     0.6471 C.3     
  11 O11            2.3762     4.8466     1.2914 O.3     
  12 Si12           3.6019     5.8613     1.6493 Si      
  13 C13            4.0132     6.8946     0.1484 C.ar    
  14 C14            3.7317     8.2480     0.1428 C.ar    
  15 C15            4.0360     9.0127    -0.9679 C.ar    
  16 C16            4.6221     8.4240    -2.0728 C.ar    
  17 C17            4.9045     7.0708    -2.0668 C.ar    
  18 C18            4.6041     6.3070    -0.9545 C.ar    
  19 C19            3.0932     6.9807     3.0555 C.ar    
  20 C20            2.2761     8.0688     2.8119 C.ar    
  21 C21            1.8996     8.8972     3.8526 C.ar    
  22 C22            2.3399     8.6372     5.1369 C.ar    
  23 C23            3.1563     7.5487     5.3806 C.ar    
  24 C24            3.5292     6.7178     4.3407 C.ar    
  25 C25            5.0992     4.8735     2.1523 C.3     
  26 C26            5.7017     4.1970     0.9194 C.3     
  27 C27            6.1371     5.8052     2.7813 C.3     
  28 C28            4.6884     3.8070     3.1695 C.3     
  29 H29           -0.4671     1.0366    -3.5310 H       
  30 H30            1.1195     0.5337    -2.9337 H       
  31 H31           -0.1628    -0.7644     0.1100 H       
  32 H32            1.2203    -0.7479    -1.0054 H       
  33 H33            2.7431     0.9774    -0.8649 H       
  34 H34            2.4499     2.7545    -2.2329 H       
  35 H35            1.5796     4.8457    -1.5279 H       
  36 H36            0.5078     4.0835    -0.3052 H       
  37 H37            3.5722     4.2660    -0.3070 H       
  38 H38            2.1639     2.3959     1.5894 H       
  39 H39            3.7362     2.1983     0.7640 H       
  40 H40            3.2737     8.7079     1.0060 H       
  41 H41            3.8154    10.0699    -0.9725 H       
  42 H42            4.8592     9.0213    -2.9408 H       
  43 H43            5.3621     6.6109    -2.9302 H       
  44 H44            4.8281     5.2505    -0.9484 H       
  45 H45            1.9320     8.2719     1.8085 H       
  46 H46            1.2618     9.7477     3.6622 H       
  47 H47            2.0464     9.2849     5.9498 H       
  48 H48            3.5006     7.3458     6.3840 H       
  49 H49            4.1640     5.8652     4.5317 H       
  50 H50            6.0444     4.9582     0.2184 H       
  51 H51            6.5447     3.5755     1.2214 H       
  52 H52            4.9455     3.5756     0.4399 H       
  53 H53            5.7487     6.2011     3.7196 H       
  54 H54            7.0549     5.2495     2.9736 H       
  55 H55            6.3472     6.6286     2.0987 H       
  56 H56            4.0124     3.0948     2.6963 H       
  57 H57            5.5757     3.2840     3.5261 H       
  58 H58            4.1842     4.2824     4.0109 H       
@<TRIPOS>BOND
   1    1    2 1
   2    1    7 1
   3    2    3 1
   4    2   29 1
   5    2   30 1
   6    3    4 1
   7    4    5 1
   8    4   31 1
   9    4   32 1
  10    5    6 1
  11    6    7 1
  12    6   10 1
  13    6   33 1
  14    7    8 1
  15    7   34 1
  16    8    9 1
  17    8   35 1
  18    8   36 1
  19    9   10 1
  20    9   11 1
  21    9   37 1
  22   10   38 1
  23   10   39 1
  24   11   12 1
  25   12   13 1
  26   12   19 1
  27   12   25 1
  28   13   14 ar
  29   13   18 ar
  30   14   15 ar
  31   14   40 1
  32   15   16 ar
  33   15   41 1
  34   16   17 ar
  35   16   42 1
  36   17   18 ar
  37   17   43 1
  38   18   44 1
  39   19   20 ar
  40   19   24 ar
  41   20   21 ar
  42   20   45 1
  43   21   22 ar
  44   21   46 1
  45   22   23 ar
  46   22   47 1
  47   23   24 ar
  48   23   48 1
  49   24   49 1
  50   25   26 1
  51   25   28 1
  52   25   27 1
  53   26   50 1
  54   26   51 1
  55   26   52 1
  56   27   53 1
  57   27   54 1
  58   27   55 1
  59   28   56 1
  60   28   57 1
  61   28   58 1

#	End of record

