#	Name: ASD07931632
#	Creating user name:	WinNT
#	Creation time:	15. 06. 2019 21:13

#	Modifying user name:	WinNT
#	Modification time:	15. 06. 2019 21:13

#	Program:	/corina/corina34_cracker 3.40 0067  02.08.2006

@<TRIPOS>MOLECULE
ASD07931632
  63   68    0    0    0
SMALL
NO_CHARGES


@<TRIPOS>ATOM
   1 C1            -0.0184     1.5028     0.0103 C.2     
   2 C2             0.0021    -0.0041     0.0020 C.3     
   3 O3             1.0197     2.1211     0.0037 O.2     
   4 O4            -1.1898     2.1580     0.0194 O.3     
   5 C5            -1.1335     3.6089     0.0270 C.3     
   6 C6            -2.3654     4.1709    -0.6853 C.3     
   7 C7            -2.3061     5.6997    -0.6773 C.3     
   8 C8            -2.2795     6.2015     0.7678 C.3     
   9 C9            -1.0475     5.6395     1.4802 C.3     
  10 C10           -1.1069     4.1107     1.4722 C.3     
  11 N11           -2.9257     1.9834    -6.2552 N.pl3   
  12 C12           -3.5433     2.0378    -5.0641 C.2     
  13 C13           -2.9949     2.7037    -3.9962 C.2     
  14 C14           -1.6882     3.3810    -4.1578 C.2     
  15 C15           -1.0436     3.2956    -5.4826 C.ar    
  16 C16            0.1846     3.8991    -5.7327 C.ar    
  17 C17            0.7542     3.7962    -6.9850 C.ar    
  18 C18            0.1064     3.0954    -7.9899 C.ar    
  19 C19           -1.1115     2.4928    -7.7541 C.ar    
  20 C20           -1.7033     2.5857    -6.4989 C.ar    
  21 N21           -2.3909     3.6904    -2.0691 N.am    
  22 N22           -1.3923     3.9309    -3.0161 N.2     
  23 C23           -3.3834     2.9522    -2.6114 C.2     
  24 C24           -3.5723     1.2482    -7.3449 C.3     
  25 C25           -4.4650     2.1822    -8.1207 C.ar    
  26 C26           -3.9594     2.8811    -9.2014 C.ar    
  27 C27           -4.7751     3.7378    -9.9144 C.ar    
  28 C28           -6.1040     3.8966    -9.5452 C.ar    
  29 C29           -6.6089     3.1932    -8.4599 C.ar    
  30 C30           -5.7895     2.3342    -7.7538 C.ar    
  31 N31           -6.9342     4.7658   -10.2665 N.pl3   
  32 N32           -6.5584     5.5334   -11.3764 N.2     
  33 C33           -7.6022     6.2148   -11.7751 C.2     
  34 C34           -8.6758     5.9039   -10.9334 C.2     
  35 C35           -8.2413     5.0072   -10.0178 C.2     
  36 O36           -4.4005     2.5702    -2.0556 O.2     
  37 H37            1.0345    -0.3534    -0.0097 H       
  38 H38           -0.4983    -0.3791     0.8948 H       
  39 H39           -0.5153    -0.3696    -0.8850 H       
  40 H40           -0.2325     3.9403    -0.4893 H       
  41 H41           -3.2664     3.8395    -0.1690 H       
  42 H42           -1.4051     6.0311    -1.1936 H       
  43 H43           -3.1837     6.1000    -1.1848 H       
  44 H44           -2.2372     7.2906     0.7736 H       
  45 H45           -3.1804     5.8701     1.2842 H       
  46 H46           -0.1466     5.9709     0.9639 H       
  47 H47           -1.0286     5.9970     2.5097 H       
  48 H48           -2.0078     3.7793     1.9885 H       
  49 H49           -0.2292     3.7104     1.9797 H       
  50 H50           -4.4966     1.5449    -4.9432 H       
  51 H51            0.6897     4.4460    -4.9503 H       
  52 H52            1.7076     4.2634    -7.1828 H       
  53 H53            0.5595     3.0207    -8.9674 H       
  54 H54           -1.6070     1.9497    -8.5453 H       
  55 H55           -2.8110     0.8383    -8.0086 H       
  56 H56           -4.1691     0.4354    -6.9309 H       
  57 H57           -2.9255     2.7571    -9.4881 H       
  58 H58           -4.3794     4.2839   -10.7579 H       
  59 H59           -7.6422     3.3147    -8.1704 H       
  60 H60           -6.1827     1.7839    -6.9118 H       
  61 H61           -7.6300     6.8996   -12.6098 H       
  62 H62           -9.6759     6.3054   -11.0046 H       
  63 H63           -8.8318     4.5654    -9.2288 H       
@<TRIPOS>BOND
   1    1    2 1
   2    1    3 2
   3    1    4 1
   4    2   37 1
   5    2   38 1
   6    2   39 1
   7    4    5 1
   8    5    6 1
   9    5   10 1
  10    5   40 1
  11    6    7 1
  12    6   21 1
  13    6   41 1
  14    7    8 1
  15    7   42 1
  16    7   43 1
  17    8    9 1
  18    8   44 1
  19    8   45 1
  20    9   10 1
  21    9   46 1
  22    9   47 1
  23   10   48 1
  24   10   49 1
  25   11   12 1
  26   11   20 1
  27   11   24 1
  28   12   13 2
  29   12   50 1
  30   13   14 1
  31   13   23 1
  32   14   15 1
  33   14   22 2
  34   15   16 ar
  35   15   20 ar
  36   16   17 ar
  37   16   51 1
  38   17   18 ar
  39   17   52 1
  40   18   19 ar
  41   18   53 1
  42   19   20 ar
  43   19   54 1
  44   21   22 1
  45   21   23 am
  46   23   36 2
  47   24   25 1
  48   24   55 1
  49   24   56 1
  50   25   26 ar
  51   25   30 ar
  52   26   27 ar
  53   26   57 1
  54   27   28 ar
  55   27   58 1
  56   28   29 ar
  57   28   31 1
  58   29   30 ar
  59   29   59 1
  60   30   60 1
  61   31   32 1
  62   31   35 1
  63   32   33 2
  64   33   34 1
  65   33   61 1
  66   34   35 2
  67   34   62 1
  68   35   63 1

#	End of record

