#	Name: ASD00170535
#	Creating user name:	WinNT
#	Creation time:	15. 06. 2019 18:32

#	Modifying user name:	WinNT
#	Modification time:	15. 06. 2019 18:32

#	Program:	/corina/corina34_cracker 3.40 0067  02.08.2006

@<TRIPOS>MOLECULE
ASD00170535
  56   59    0    0    0
SMALL
NO_CHARGES


@<TRIPOS>ATOM
   1 C1             0.4954     1.8072     0.6348 C.3     
   2 N2             0.4242     0.3485     0.4763 N.3     
   3 C3            -0.9573    -0.1305     0.6235 C.3     
   4 C4            -1.0005    -1.6398     0.3734 C.3     
   5 N5            -0.1073    -2.3170     1.3238 N.3     
   6 C6             1.2742    -1.8380     1.1766 C.3     
   7 C7             1.3174    -0.3287     1.4267 C.3     
   8 C8            -0.1784    -3.7757     1.1654 C.3     
   9 C9             0.9171    -4.4227     1.9730 C.2     
  10 C10            2.0557    -4.8477     1.4479 C.2     
  11 S11            3.0924    -5.5442     2.6800 S.3     
  12 C12            1.9545    -5.2479     3.9139 C.2     
  13 C13            0.8332    -4.6368     3.4024 C.2     
  14 C14           -0.3225    -4.2537     4.2131 C.2     
  15 O15           -0.3889    -3.1344     4.6880 O.2     
  16 C16           -1.4102    -5.2257     4.4560 C.ar    
  17 C17           -2.4603    -4.9016     5.3169 C.ar    
  18 C18           -3.4718    -5.8120     5.5396 C.ar    
  19 C19           -3.4472    -7.0461     4.9110 C.ar    
  20 C20           -2.4079    -7.3734     4.0559 C.ar    
  21 C21           -1.3938    -6.4688     3.8210 C.ar    
  22 Cl22          -4.7237    -8.1874     5.1967 Cl      
  23 N23            2.1355    -5.5712     5.2434 N.pl3   
  24 C24            1.9602     2.2395     0.7248 C.3     
  25 C25            2.0332     3.7360     0.8873 C.ar    
  26 C26            2.0312     4.2945     2.1519 C.ar    
  27 C27            2.0982     5.6669     2.3016 C.ar    
  28 C28            2.1671     6.4817     1.1856 C.ar    
  29 C29            2.1691     5.9221    -0.0798 C.ar    
  30 C30            2.1078     4.5493    -0.2280 C.ar    
  31 Cl31           2.2507     8.2055     1.3728 Cl      
  32 H32            0.0263     2.2891    -0.2230 H       
  33 H33           -0.0264     2.0995     1.5460 H       
  34 H34           -1.3099     0.0811     1.6330 H       
  35 H35           -1.5968     0.3763    -0.0991 H       
  36 H36           -2.0193    -2.0021     0.5105 H       
  37 H37           -0.6737    -1.8491    -0.6452 H       
  38 H38            1.9138    -2.3448     1.8992 H       
  39 H39            1.6268    -2.0496     0.1671 H       
  40 H40            2.3363     0.0336     1.2896 H       
  41 H41            0.9906    -0.1194     2.4453 H       
  42 H42           -1.1471    -4.1324     1.5155 H       
  43 H43           -0.0550    -4.0333     0.1135 H       
  44 H44            2.3118    -4.7757     0.4012 H       
  45 H45           -2.4804    -3.9398     5.8078 H       
  46 H46           -4.2845    -5.5625     6.2056 H       
  47 H47           -2.3940    -8.3371     3.5686 H       
  48 H48           -0.5842    -6.7249     3.1537 H       
  49 H49            2.9218    -6.0678     5.5191 H       
  50 H50            1.4763    -5.3019     5.9021 H       
  51 H51            2.4293     1.7576     1.5826 H       
  52 H52            2.4820     1.9472    -0.1865 H       
  53 H53            1.9770     3.6584     3.0230 H       
  54 H54            2.0962     6.1032     3.2895 H       
  55 H55            2.2230     6.5576    -0.9513 H       
  56 H56            2.1094     4.1123    -1.2157 H       
@<TRIPOS>BOND
   1    1    2 1
   2    1   24 1
   3    1   32 1
   4    1   33 1
   5    2    3 1
   6    2    7 1
   7    3    4 1
   8    3   34 1
   9    3   35 1
  10    4    5 1
  11    4   36 1
  12    4   37 1
  13    5    6 1
  14    5    8 1
  15    6    7 1
  16    6   38 1
  17    6   39 1
  18    7   40 1
  19    7   41 1
  20    8    9 1
  21    8   42 1
  22    8   43 1
  23    9   10 2
  24    9   13 1
  25   10   11 1
  26   10   44 1
  27   11   12 1
  28   12   13 2
  29   12   23 1
  30   13   14 1
  31   14   15 2
  32   14   16 1
  33   16   17 ar
  34   16   21 ar
  35   17   18 ar
  36   17   45 1
  37   18   19 ar
  38   18   46 1
  39   19   20 ar
  40   19   22 1
  41   20   21 ar
  42   20   47 1
  43   21   48 1
  44   23   49 1
  45   23   50 1
  46   24   25 1
  47   24   51 1
  48   24   52 1
  49   25   26 ar
  50   25   30 ar
  51   26   27 ar
  52   26   53 1
  53   27   28 ar
  54   27   54 1
  55   28   29 ar
  56   28   31 1
  57   29   30 ar
  58   29   55 1
  59   30   56 1

#	End of record

