#	Name: ASD05380298
#	Creating user name:	WinNT
#	Creation time:	15. 06. 2019 20:59

#	Modifying user name:	WinNT
#	Modification time:	15. 06. 2019 20:59

#	Program:	/corina/corina34_cracker 3.40 0067  02.08.2006

@<TRIPOS>MOLECULE
ASD05380298
  42   44    0    0    0
SMALL
NO_CHARGES


@<TRIPOS>ATOM
   1 C1             0.2886     1.5944     0.7495 C.ar    
   2 C2             0.1244     0.2358     0.5121 C.ar    
   3 C3             1.2004    -0.5581     0.1849 C.ar    
   4 C4             2.4737     0.0075     0.0899 C.ar    
   5 C5             2.6370     1.3896     0.3319 C.ar    
   6 C6             1.5346     2.1755     0.6618 C.ar    
   7 N7             3.5610    -0.7381    -0.2293 N.2     
   8 N8             4.9946     1.1076    -0.1012 N.am    
   9 C9             3.9901     1.9542     0.2244 C.2     
  10 C10            1.7041     3.6505     0.9204 C.3     
  11 O11            4.1989     3.1373     0.4205 O.2     
  12 C12            6.3028     1.5945    -0.2166 C.ar    
  13 C13            6.7103     2.2241    -1.3853 C.ar    
  14 C14            8.0009     2.7031    -1.4960 C.ar    
  15 C15            8.8872     2.5559    -0.4448 C.ar    
  16 C16            8.4846     1.9290     0.7202 C.ar    
  17 C17            7.1933     1.4537     0.8396 C.ar    
  18 C18            4.7449    -0.2123    -0.3173 C.2     
  19 C19            5.9011    -1.1094    -0.6769 C.3     
  20 C20            5.4768    -2.5720    -0.5296 C.3     
  21 O21            6.3005    -0.8573    -2.0500 O.3     
  22 O22            8.3077    -1.6428    -1.5627 O.2     
  23 C23            7.5752    -1.1264    -2.3731 C.2     
  24 C24            8.0927    -0.7845    -3.7465 C.3     
  25 H25           -0.5687     2.2014     1.0006 H       
  26 H26           -0.8595    -0.2033     0.5855 H       
  27 H27            1.0605    -1.6134     0.0029 H       
  28 H28            1.6424     4.1940    -0.0224 H       
  29 H29            0.9163     3.9947     1.5905 H       
  30 H30            2.6760     3.8294     1.3801 H       
  31 H31            6.0187     2.3387    -2.2069 H       
  32 H32            8.3184     3.1928    -2.4047 H       
  33 H33            9.8960     2.9310    -0.5340 H       
  34 H34            9.1792     1.8152     1.5393 H       
  35 H35            6.8794     0.9643     1.7497 H       
  36 H36            6.7399    -0.9056    -0.0113 H       
  37 H37            5.1770    -2.7613     0.5012 H       
  38 H38            4.6380    -2.7758    -1.1952 H       
  39 H39            6.3130    -3.2209    -0.7897 H       
  40 H40            7.2943    -0.3296    -4.3327 H       
  41 H41            8.9230    -0.0839    -3.6579 H       
  42 H42            8.4352    -1.6929    -4.2422 H       
@<TRIPOS>BOND
   1    1    2 ar
   2    1    6 ar
   3    1   25 1
   4    2    3 ar
   5    2   26 1
   6    3    4 ar
   7    3   27 1
   8    4    5 ar
   9    4    7 1
  10    5    6 ar
  11    5    9 1
  12    6   10 1
  13    7   18 2
  14    8    9 am
  15    8   12 1
  16    8   18 1
  17    9   11 2
  18   10   28 1
  19   10   29 1
  20   10   30 1
  21   12   13 ar
  22   12   17 ar
  23   13   14 ar
  24   13   31 1
  25   14   15 ar
  26   14   32 1
  27   15   16 ar
  28   15   33 1
  29   16   17 ar
  30   16   34 1
  31   17   35 1
  32   18   19 1
  33   19   20 1
  34   19   21 1
  35   19   36 1
  36   20   37 1
  37   20   38 1
  38   20   39 1
  39   21   23 1
  40   22   23 2
  41   23   24 1
  42   24   40 1
  43   24   41 1
  44   24   42 1

#	End of record

