#	Name: ASD01811939
#	Creating user name:	WinNT
#	Creation time:	15. 06. 2019 19:27

#	Modifying user name:	WinNT
#	Modification time:	15. 06. 2019 19:27

#	Program:	/corina/corina34_cracker 3.40 0067  02.08.2006

@<TRIPOS>MOLECULE
ASD01811939
  36   38    0    0    0
SMALL
NO_CHARGES


@<TRIPOS>ATOM
   1 C1             0.3047     1.7855     0.5717 C.ar    
   2 C2             0.1663     0.4066     0.5848 C.ar    
   3 C3             1.2656    -0.3979     0.3851 C.ar    
   4 C4             2.5315     0.1665     0.1673 C.ar    
   5 C5             2.6677     1.5536     0.1559 C.ar    
   6 C6             1.5415     2.3538     0.3596 C.ar    
   7 C7             3.6611    -0.7525    -0.0423 C.2     
   8 N8             4.6021    -0.5777    -0.9012 N.2     
   9 C9             4.6422     0.5945    -1.7745 C.3     
  10 C10            4.8041     1.8274    -0.9278 C.2     
  11 N11            3.8775     2.1979    -0.0470 N.am    
  12 S12            6.1238     2.7155    -1.0899 S.2     
  13 C13            3.7190    -1.9703     0.7995 C.ar    
  14 C14            3.0673    -2.0010     2.0322 C.ar    
  15 C15            3.1246    -3.1383     2.8114 C.ar    
  16 C16            3.8269    -4.2464     2.3724 C.ar    
  17 C17            4.4757    -4.2219     1.1508 C.ar    
  18 C18            4.4206    -3.0926     0.3598 C.ar    
  19 Cl19          -1.3935    -0.3064     0.8536 Cl      
  20 C20            3.3379     0.6863    -2.5692 C.3     
  21 C21            3.2287    -0.5149    -3.5106 C.3     
  22 F22            3.2364    -1.6965    -2.7617 F       
  23 F23            2.0362    -0.4310    -4.2372 F       
  24 F24            4.3138    -0.5154    -4.3937 F       
  25 H25           -0.5592     2.4155     0.7236 H       
  26 H26            1.1527    -1.4720     0.3966 H       
  27 H27            1.6411     3.4291     0.3503 H       
  28 H28            5.4847     0.5098    -2.4609 H       
  29 H29            4.0638     2.9802     0.4954 H       
  30 H30            2.5194    -1.1363     2.3762 H       
  31 H31            2.6203    -3.1633     3.7662 H       
  32 H32            3.8691    -5.1342     2.9860 H       
  33 H33            5.0227    -5.0899     0.8136 H       
  34 H34            4.9272    -3.0747    -0.5939 H       
  35 H35            2.4925     0.6867    -1.8812 H       
  36 H36            3.3320     1.6069    -3.1527 H       
@<TRIPOS>BOND
   1    1    2 ar
   2    1    6 ar
   3    1   25 1
   4    2    3 ar
   5    2   19 1
   6    3    4 ar
   7    3   26 1
   8    4    5 ar
   9    4    7 1
  10    5    6 ar
  11    5   11 1
  12    6   27 1
  13    7    8 2
  14    7   13 1
  15    8    9 1
  16    9   10 1
  17    9   20 1
  18    9   28 1
  19   10   11 am
  20   10   12 2
  21   11   29 1
  22   13   14 ar
  23   13   18 ar
  24   14   15 ar
  25   14   30 1
  26   15   16 ar
  27   15   31 1
  28   16   17 ar
  29   16   32 1
  30   17   18 ar
  31   17   33 1
  32   18   34 1
  33   20   21 1
  34   20   35 1
  35   20   36 1
  36   21   22 1
  37   21   23 1
  38   21   24 1

#	End of record

