#	Name: ASD01811477
#	Creating user name:	WinNT
#	Creation time:	15. 06. 2019 19:26

#	Modifying user name:	WinNT
#	Modification time:	15. 06. 2019 19:26

#	Program:	/corina/corina34_cracker 3.40 0067  02.08.2006

@<TRIPOS>MOLECULE
ASD01811477
  75   80    0    0    0
SMALL
NO_CHARGES


@<TRIPOS>ATOM
   1 C1             0.0401     1.5158     0.1636 C.3     
   2 C2             0.0529     0.0076     0.1303 C.2     
   3 C3             1.1585    -0.7376    -0.0985 C.2     
   4 C4             2.5333    -0.1662    -0.3441 C.3     
   5 C5             2.3933     1.3096    -0.7368 C.3     
   6 N6             1.4445     1.9645     0.1761 N.am    
   7 C7            -0.4831    -2.1143     0.1835 C.2     
   8 N8            -0.9870    -0.8505     0.3128 N.pl3   
   9 N9             0.8067    -2.0239    -0.0638 N.2     
  10 C10            1.8479     2.9502     1.0021 C.2     
  11 O11            3.0092     3.3078     0.9995 O.2     
  12 O12            0.9642     3.5385     1.8301 O.3     
  13 C13           -1.2556    -3.3703     0.3019 C.ar    
  14 C14           -0.6164    -4.6022     0.1472 C.ar    
  15 C15           -1.3358    -5.7755     0.2574 C.ar    
  16 C16           -2.6908    -5.7396     0.5214 C.ar    
  17 C17           -3.3423    -4.5145     0.6783 C.ar    
  18 C18           -2.6208    -3.3268     0.5736 C.ar    
  19 C19           -3.4680    -7.0252     0.6400 C.3     
  20 C20           -4.2099    -7.2954    -0.6705 C.3     
  21 C21            0.8620    -4.6511    -0.1411 C.3     
  22 C22            1.7542    -5.3807     0.8651 C.3     
  23 C23            1.4672    -6.0098    -0.4997 C.3     
  24 C24           -4.7934    -4.4776     0.9601 C.2     
  25 O25           -5.2438    -5.0882     1.9097 O.2     
  26 N26           -5.6166    -3.7670     0.1639 N.am    
  27 C27           -7.0703    -3.7948     0.3750 C.3     
  28 C28           -7.7526    -4.1788    -0.9418 C.3     
  29 C29           -7.2959    -3.2227    -2.0460 C.3     
  30 C30           -5.7818    -3.3430    -2.2335 C.3     
  31 C31           -5.0768    -2.9451    -0.9278 C.3     
  32 C32           -7.9911    -3.5763    -3.3355 C.ar    
  33 C33           -8.7970    -2.6422    -3.9620 C.ar    
  34 C34           -9.4363    -2.9592    -5.1426 C.ar    
  35 C35           -9.2683    -4.2260    -5.7054 C.ar    
  36 C36           -8.4532    -5.1636    -5.0680 C.ar    
  37 C37           -7.8160    -4.8316    -3.8904 C.ar    
  38 C38           -9.9292    -4.5622    -6.9304 C.1     
  39 N39          -10.4536    -4.8289    -7.9022 N.1     
  40 C40            1.4690     4.5926     2.6917 C.3     
  41 H41           -0.4650     1.9022    -0.7216 H       
  42 H42           -0.4683     1.8627     1.0632 H       
  43 H43            3.1302    -0.2474     0.5644 H       
  44 H44            3.0178    -0.7147    -1.1519 H       
  45 H45            3.3646     1.7992    -0.6652 H       
  46 H46            2.0232     1.3807    -1.7595 H       
  47 H47           -1.9084    -0.6114     0.4991 H       
  48 H48           -0.8367    -6.7255     0.1362 H       
  49 H49           -3.1190    -2.3767     0.6985 H       
  50 H50           -2.7820    -7.8470     0.8452 H       
  51 H51           -4.1878    -6.9409     1.4542 H       
  52 H52           -4.8960    -6.4736    -0.8757 H       
  53 H53           -3.4902    -7.3797    -1.4848 H       
  54 H54           -4.7721    -8.2252    -0.5848 H       
  55 H55            1.2743    -3.7704    -0.6335 H       
  56 H56            2.7537    -4.9801     1.0345 H       
  57 H57            1.2720    -5.8252     1.7357 H       
  58 H58            0.7961    -6.8683    -0.5270 H       
  59 H59            2.2779    -6.0232    -1.2282 H       
  60 H60           -7.3143    -4.5307     1.1411 H       
  61 H61           -7.4127    -2.8090     0.6900 H       
  62 H62           -7.4796    -5.1998    -1.2087 H       
  63 H63           -8.8341    -4.1096    -0.8249 H       
  64 H64           -7.5471    -2.1993    -1.7671 H       
  65 H65           -5.5274    -4.3718    -2.4882 H       
  66 H66           -5.4606    -2.6789    -3.0359 H       
  67 H67           -5.2600    -1.8915    -0.7169 H       
  68 H68           -4.0051    -3.1202    -1.0216 H       
  69 H69           -8.9260    -1.6628    -3.5256 H       
  70 H70          -10.0656    -2.2294    -5.6302 H       
  71 H71           -8.3190    -6.1452    -5.4979 H       
  72 H72           -7.1821    -5.5545    -3.3985 H       
  73 H73            2.2518     4.1919     3.3357 H       
  74 H74            1.8779     5.3970     2.0803 H       
  75 H75            0.6562     4.9803     3.3059 H       
@<TRIPOS>BOND
   1    1    2 1
   2    1    6 1
   3    1   41 1
   4    1   42 1
   5    2    3 2
   6    2    8 1
   7    3    4 1
   8    3    9 1
   9    4    5 1
  10    4   43 1
  11    4   44 1
  12    5    6 1
  13    5   45 1
  14    5   46 1
  15    6   10 am
  16    7    8 1
  17    7    9 2
  18    7   13 1
  19    8   47 1
  20   10   11 2
  21   10   12 1
  22   12   40 1
  23   13   14 ar
  24   13   18 ar
  25   14   15 ar
  26   14   21 1
  27   15   16 ar
  28   15   48 1
  29   16   17 ar
  30   16   19 1
  31   17   18 ar
  32   17   24 1
  33   18   49 1
  34   19   20 1
  35   19   50 1
  36   19   51 1
  37   20   52 1
  38   20   53 1
  39   20   54 1
  40   21   22 1
  41   21   23 1
  42   21   55 1
  43   22   23 1
  44   22   56 1
  45   22   57 1
  46   23   58 1
  47   23   59 1
  48   24   25 2
  49   24   26 am
  50   26   27 1
  51   26   31 1
  52   27   28 1
  53   27   60 1
  54   27   61 1
  55   28   29 1
  56   28   62 1
  57   28   63 1
  58   29   30 1
  59   29   32 1
  60   29   64 1
  61   30   31 1
  62   30   65 1
  63   30   66 1
  64   31   67 1
  65   31   68 1
  66   32   33 ar
  67   32   37 ar
  68   33   34 ar
  69   33   69 1
  70   34   35 ar
  71   34   70 1
  72   35   36 ar
  73   35   38 1
  74   36   37 ar
  75   36   71 1
  76   37   72 1
  77   38   39 3
  78   40   73 1
  79   40   74 1
  80   40   75 1

#	End of record

