#	Name: ASD01881346
#	Creating user name:	WinNT
#	Creation time:	15. 06. 2019 19:42

#	Modifying user name:	WinNT
#	Modification time:	15. 06. 2019 19:42

#	Program:	/corina/corina34_cracker 3.40 0067  02.08.2006

@<TRIPOS>MOLECULE
ASD01881346
  24   25    0    0    0
SMALL
NO_CHARGES


@<TRIPOS>ATOM
   1 C1             0.0182     1.6136    -0.0721 C.3     
   2 C2            -0.0247     0.0827    -0.2579 C.3     
   3 C3            -0.0755    -0.4739     1.1866 C.3     
   4 C4             0.8658     0.4858     1.9560 C.3     
   5 C5             0.5844     1.8698     1.3355 C.3     
   6 C6             1.3833     2.2832     0.0979 C.3     
   7 C7            -1.2589    -0.3213    -1.0226 C.2     
   8 O8            -2.2380     0.3864    -1.0068 O.2     
   9 O9            -1.2703    -1.4675    -1.7211 O.3     
  10 C10            2.6042     1.4691    -0.2450 C.2     
  11 O11            3.2585     0.9614     0.6348 O.2     
  12 O12            2.9649     1.3080    -1.5278 O.3     
  13 F13            0.5542     0.4881     3.3199 F       
  14 N14            1.1850    -0.3856    -0.9471 N.3     
  15 H15           -0.8129     2.1916    -0.4762 H       
  16 H16           -1.0889    -0.4228     1.5849 H       
  17 H17            0.3028    -1.4956     1.2204 H       
  18 H18            1.9072     0.2033     1.8022 H       
  19 H19            0.1607     2.6348     1.9863 H       
  20 H20            1.4518     3.3483    -0.1235 H       
  21 H21           -2.0845    -1.6844    -2.1955 H       
  22 H22            3.7552     0.7775    -1.6984 H       
  23 H23            1.2201    -1.3937    -0.9711 H       
  24 H24            1.2435     0.0005    -1.8775 H       
@<TRIPOS>BOND
   1    1    2 1
   2    1    6 1
   3    1    5 1
   4    1   15 1
   5    2    3 1
   6    2    7 1
   7    2   14 1
   8    3    4 1
   9    3   16 1
  10    3   17 1
  11    4    5 1
  12    4   13 1
  13    4   18 1
  14    5    6 1
  15    5   19 1
  16    6   10 1
  17    6   20 1
  18    7    8 2
  19    7    9 1
  20    9   21 1
  21   10   11 2
  22   10   12 1
  23   12   22 1
  24   14   23 1
  25   14   24 1

#	End of record

