#	Name: ASD00842023
#	Creating user name:	WinNT
#	Creation time:	15. 06. 2019 18:43

#	Modifying user name:	WinNT
#	Modification time:	15. 06. 2019 18:43

#	Program:	/corina/corina34_cracker 3.40 0067  02.08.2006

@<TRIPOS>MOLECULE
ASD00842023
  91   96    0    0    0
SMALL
NO_CHARGES


@<TRIPOS>ATOM
   1 C1             1.0642     1.5467    -0.5392 C.ar    
   2 C2             1.3515     0.2029    -0.7280 C.ar    
   3 C3             1.2582    -0.6805     0.3380 C.ar    
   4 C4             0.8798    -0.2200     1.5839 C.ar    
   5 C5             0.5934     1.1202     1.7694 C.ar    
   6 C6             0.6860     2.0024     0.7092 C.ar    
   7 C7             1.5692    -2.1412     0.1363 C.3     
   8 C8             1.2721    -2.9259     1.3963 C.2     
   9 C9             0.7718    -2.6998    -1.0440 C.3     
  10 C10           -0.6951    -2.4260    -0.8337 C.2     
  11 N11           -1.6030    -2.9143    -1.7020 N.am    
  12 O12           -1.0587    -1.7663     0.1168 O.2     
  13 C13           -3.0273    -2.5687    -1.5788 C.3     
  14 C14           -3.5264    -2.0695    -2.9390 C.3     
  15 N15           -3.2169    -3.0710    -3.9682 N.3     
  16 C16           -1.7669    -3.2590    -4.1098 C.3     
  17 C17           -1.1949    -3.8021    -2.8013 C.3     
  18 N18           -3.8229    -2.7145    -5.2409 N.3     
  19 C19           -3.5133    -3.7164    -6.2705 C.3     
  20 C20           -4.2327    -3.3474    -7.5701 C.3     
  21 N21           -3.8080    -2.0075    -7.9987 N.3     
  22 C22           -4.1176    -1.0056    -6.9690 C.3     
  23 C23           -3.3982    -1.3745    -5.6695 C.3     
  24 C24           -4.4202    -1.6473    -9.2845 C.3     
  25 O25            0.1919    -3.0393     1.9360 O.2     
  26 N26            2.4288    -3.4736     1.8042 N.am    
  27 C27            3.0520    -2.3425    -0.0794 C.ar    
  28 C28            3.4917    -3.1533     0.9643 C.ar    
  29 C29            3.9216    -1.8940    -1.0409 C.ar    
  30 C30            5.2730    -2.2523    -0.9789 C.ar    
  31 C31            5.7223    -3.0670     0.0674 C.ar    
  32 C32            4.8382    -3.5123     1.0267 C.ar    
  33 F33            7.0249    -3.4185     0.1362 F       
  34 C34            2.2997    -6.0887     2.6521 C.ar    
  35 C35            1.0563    -6.4736     2.1728 C.ar    
  36 C36            3.3246    -7.0120     2.7304 C.ar    
  37 C37            3.1117    -8.3183     2.3311 C.ar    
  38 C38            1.8730    -8.7044     1.8528 C.ar    
  39 C39            0.8450    -7.7854     1.7731 C.ar    
  40 H40            1.7092    -9.7255     1.5415 H       
  41 O41            0.0464    -5.5674     2.0952 O.3     
  42 C42           -1.2069    -6.0342     1.5919 C.3     
  43 C43           -2.2125    -4.8812     1.5788 C.3     
  44 S44            2.5741    -4.4221     3.1539 S.o2    
  45 O45            3.9349    -4.3428     3.5554 O.2     
  46 O46            1.4909    -4.0761     4.0060 O.2     
  47 O47            1.7233    -0.2478    -1.9550 O.3     
  48 C48            2.2358     0.0379    -4.2994 C.3     
  49 C49            1.6889     0.6934    -3.0297 C.3     
  50 C50            6.1889    -1.7898    -1.9778 C.1     
  51 N51            6.9154    -1.4229    -2.7702 N.1     
  52 H52            1.1404     2.2371    -1.3663 H       
  53 H53            0.8070    -0.9072     2.4139 H       
  54 H54            0.2970     1.4782     2.7443 H       
  55 H55            0.4619     3.0485     0.8566 H       
  56 H56            1.1025    -2.2204    -1.9653 H       
  57 H57            0.9341    -3.7753    -1.1155 H       
  58 H58           -3.5939    -3.4514    -1.2823 H       
  59 H59           -3.1504    -1.7835    -0.8329 H       
  60 H60           -4.6043    -1.9133    -2.8959 H       
  61 H61           -3.0319    -1.1299    -3.1854 H       
  62 H62           -1.5688    -3.9655    -4.9158 H       
  63 H63           -1.2969    -2.3029    -4.3399 H       
  64 H64           -0.1071    -3.8349    -2.8630 H       
  65 H65           -1.5845    -4.8036    -2.6191 H       
  66 H66           -2.4375    -3.7389    -6.4442 H       
  67 H67           -3.8486    -4.6979    -5.9353 H       
  68 H68           -3.9814    -4.0733    -8.3435 H       
  69 H69           -5.3099    -3.3515    -7.4033 H       
  70 H70           -3.7824    -0.0241    -7.3043 H       
  71 H71           -5.1934    -0.9831    -6.7954 H       
  72 H72           -3.6495    -0.6487    -4.8961 H       
  73 H73           -2.3211    -1.3704    -5.8363 H       
  74 H74           -5.5056    -1.6547    -9.1849 H       
  75 H75           -4.0891    -0.6512    -9.5783 H       
  76 H76           -4.1202    -2.3688   -10.0445 H       
  77 H77            3.5642    -1.2663    -1.8438 H       
  78 H78            5.1901    -4.1407     1.8315 H       
  79 H79            4.2930    -6.7129     3.1035 H       
  80 H80            3.9143    -9.0383     2.3924 H       
  81 H81           -0.1225    -8.0876     1.4002 H       
  82 H82           -1.0735    -6.4115     0.5781 H       
  83 H83           -1.5799    -6.8344     2.2313 H       
  84 H84           -3.1685    -5.2373     1.1949 H       
  85 H85           -2.3459    -4.5039     2.5927 H       
  86 H86           -1.8396    -4.0810     0.9395 H       
  87 H87            3.2314    -0.3599    -4.1030 H       
  88 H88            1.5740    -0.7730    -4.6036 H       
  89 H89            2.2915     0.7797    -5.0961 H       
  90 H90            0.6609     1.0133    -3.1998 H       
  91 H91            2.3011     1.5584    -2.7747 H       
@<TRIPOS>BOND
   1    1    2 ar
   2    1    6 ar
   3    1   52 1
   4    2    3 ar
   5    2   47 1
   6    3    4 ar
   7    3    7 1
   8    4    5 ar
   9    4   53 1
  10    5    6 ar
  11    5   54 1
  12    6   55 1
  13    7    8 1
  14    7    9 1
  15    7   27 1
  16    8   25 2
  17    8   26 am
  18    9   10 1
  19    9   56 1
  20    9   57 1
  21   10   11 am
  22   10   12 2
  23   11   13 1
  24   11   17 1
  25   13   14 1
  26   13   58 1
  27   13   59 1
  28   14   15 1
  29   14   60 1
  30   14   61 1
  31   15   16 1
  32   15   18 1
  33   16   17 1
  34   16   62 1
  35   16   63 1
  36   17   64 1
  37   17   65 1
  38   18   19 1
  39   18   23 1
  40   19   20 1
  41   19   66 1
  42   19   67 1
  43   20   21 1
  44   20   68 1
  45   20   69 1
  46   21   22 1
  47   21   24 1
  48   22   23 1
  49   22   70 1
  50   22   71 1
  51   23   72 1
  52   23   73 1
  53   24   74 1
  54   24   75 1
  55   24   76 1
  56   26   44 am
  57   26   28 1
  58   27   28 ar
  59   27   29 ar
  60   28   32 ar
  61   29   30 ar
  62   29   77 1
  63   30   31 ar
  64   30   50 1
  65   31   32 ar
  66   31   33 1
  67   32   78 1
  68   34   35 ar
  69   34   36 ar
  70   34   44 1
  71   35   41 1
  72   35   39 ar
  73   36   37 ar
  74   36   79 1
  75   37   38 ar
  76   37   80 1
  77   38   39 ar
  78   38   40 1
  79   39   81 1
  80   41   42 1
  81   42   43 1
  82   42   82 1
  83   42   83 1
  84   43   84 1
  85   43   85 1
  86   43   86 1
  87   44   45 2
  88   44   46 2
  89   47   49 1
  90   48   49 1
  91   48   87 1
  92   48   88 1
  93   48   89 1
  94   49   90 1
  95   49   91 1
  96   50   51 3

#	End of record

