#	Name: ASD01510125
#	Creating user name:	WinNT
#	Creation time:	15. 06. 2019 19:21

#	Modifying user name:	WinNT
#	Modification time:	15. 06. 2019 19:21

#	Program:	/corina/corina34_cracker 3.40 0067  02.08.2006

@<TRIPOS>MOLECULE
ASD01510125
  37   39    0    0    0
SMALL
NO_CHARGES


@<TRIPOS>ATOM
   1 C1            -0.0178     1.4648     0.0101 C.3     
   2 N2             0.0021    -0.0041     0.0020 N.3     
   3 C3             0.7064    -0.5277     1.1807 C.3     
   4 C4             0.6362    -2.0566     1.1762 C.3     
   5 N5             1.2373    -2.5683    -0.0634 N.3     
   6 C6             0.5329    -2.0447    -1.2421 C.3     
   7 C7             0.6031    -0.5158    -1.2375 C.3     
   8 C8             1.2560    -3.9523    -0.0710 C.ar    
   9 N9             0.7638    -4.6103     0.9686 N.ar    
  10 C10            0.7635    -5.9337     0.9993 C.ar    
  11 C11            1.2859    -6.6356    -0.0722 C.ar    
  12 C12            1.7979    -5.9146    -1.1544 C.ar    
  13 N13            1.7603    -4.5847    -1.1189 N.ar    
  14 C14            2.3689    -6.6207    -2.3270 C.ar    
  15 C15            2.8774    -5.8936    -3.4020 C.ar    
  16 C16            3.4074    -6.5560    -4.4905 C.ar    
  17 C17            3.4347    -7.9388    -4.5160 C.ar    
  18 C18            2.9316    -8.6655    -3.4519 C.ar    
  19 C19            2.4043    -8.0137    -2.3557 C.ar    
  20 H20            1.0047     1.8421     0.0024 H       
  21 H21           -0.5450     1.8259    -0.8730 H       
  22 H22           -0.5280     1.8163     0.9069 H       
  23 H23            1.7492    -0.2115     1.1515 H       
  24 H24            0.2352    -0.1447     2.0859 H       
  25 H25            1.1828    -2.4483     2.0340 H       
  26 H26           -0.4053    -2.3729     1.2329 H       
  27 H27            1.0041    -2.4277    -2.1472 H       
  28 H28           -0.5098    -2.3609    -1.2128 H       
  29 H29            0.0565    -0.1241    -2.0954 H       
  30 H30            1.6447    -0.1994    -1.2942 H       
  31 H31            0.3601    -6.4598     1.8518 H       
  32 H32            1.2982    -7.7155    -0.0723 H       
  33 H33            2.8562    -4.8140    -3.3832 H       
  34 H34            3.8014    -5.9936    -5.3241 H       
  35 H35            3.8502    -8.4529    -5.3700 H       
  36 H36            2.9551    -9.7449    -3.4774 H       
  37 H37            2.0117    -8.5821    -1.5255 H       
@<TRIPOS>BOND
   1    1    2 1
   2    1   20 1
   3    1   21 1
   4    1   22 1
   5    2    3 1
   6    2    7 1
   7    3    4 1
   8    3   23 1
   9    3   24 1
  10    4    5 1
  11    4   25 1
  12    4   26 1
  13    5    6 1
  14    5    8 1
  15    6    7 1
  16    6   27 1
  17    6   28 1
  18    7   29 1
  19    7   30 1
  20    8    9 ar
  21    8   13 ar
  22    9   10 ar
  23   10   11 ar
  24   10   31 1
  25   11   12 ar
  26   11   32 1
  27   12   13 ar
  28   12   14 1
  29   14   15 ar
  30   14   19 ar
  31   15   16 ar
  32   15   33 1
  33   16   17 ar
  34   16   34 1
  35   17   18 ar
  36   17   35 1
  37   18   19 ar
  38   18   36 1
  39   19   37 1

#	End of record

