#	Name: ASD01720080
#	Creating user name:	WinNT
#	Creation time:	15. 06. 2019 19:23

#	Modifying user name:	WinNT
#	Modification time:	15. 06. 2019 19:23

#	Program:	/corina/corina34_cracker 3.40 0067  02.08.2006

@<TRIPOS>MOLECULE
ASD01720080
  73   76    0    0    0
SMALL
NO_CHARGES


@<TRIPOS>ATOM
   1 C1            -0.0087     1.5283     0.0837 C.3     
   2 C2             0.0144    -0.0018     0.0978 C.3     
   3 C3             0.7958    -0.4843     1.3231 C.3     
   4 C4             2.2099     0.1013     1.2799 C.3     
   5 C5             2.1231     1.6284     1.2315 C.3     
   6 N6             1.3673     2.0395     0.0415 N.3     
   7 C7             1.3808     3.4162    -0.1037 C.ar    
   8 C8             2.6014     4.0877    -0.1641 C.ar    
   9 C9             2.6174     5.4483    -0.3080 C.ar    
  10 C10            1.3932     6.1287    -0.3908 C.ar    
  11 C11            0.1987     5.3907    -0.3231 C.ar    
  12 N12            0.2336     4.0740    -0.1885 N.ar    
  13 C13           -1.4186    -0.5338     0.1639 C.3     
  14 C14           -1.4021    -2.0367     0.0541 C.2     
  15 O15           -0.3519    -2.6222    -0.0648 O.2     
  16 O16           -2.5541    -2.7248     0.0883 O.3     
  17 N17           -1.0180     6.0422    -0.4023 N.pl3   
  18 C18            1.3603     7.5914    -0.5455 C.2     
  19 O19            0.3003     8.1601    -0.7269 O.2     
  20 N20            2.5044     8.3013    -0.4862 N.am    
  21 C21            2.4716     9.7578    -0.6403 C.3     
  22 C22            2.1708    10.4070     0.7121 C.3     
  23 C23            3.8283    10.2474    -1.1506 C.3     
  24 C24            3.7940    11.7685    -1.3115 C.3     
  25 C25            3.4933    12.4177     0.0409 C.3     
  26 C26            2.1365    11.9281     0.5513 C.3     
  27 C27           -2.2609     5.2687    -0.4565 C.3     
  28 C28           -3.4530     6.2241    -0.5400 C.3     
  29 C29           -4.7408     5.4182    -0.7219 C.3     
  30 C30           -5.9328     6.3737    -0.8054 C.3     
  31 C31           -6.0215     7.1925     0.4840 C.3     
  32 C32           -4.7337     7.9984     0.6660 C.3     
  33 C33           -3.5417     7.0429     0.7495 C.3     
  34 H34           -0.5521     1.8752    -0.7952 H       
  35 H35           -0.5040     1.8924     0.9838 H       
  36 H36            0.4973    -0.3669    -0.8086 H       
  37 H37            0.2916    -0.1523     2.2306 H       
  38 H38            0.8519    -1.5728     1.3139 H       
  39 H39            2.7576    -0.2040     2.1715 H       
  40 H40            2.7274    -0.2621     0.3920 H       
  41 H41            1.6179     1.9920     2.1262 H       
  42 H42            3.1281     2.0480     1.1862 H       
  43 H43            3.5282     3.5373    -0.0973 H       
  44 H44            3.5523     5.9869    -0.3565 H       
  45 H45           -1.8705    -0.2437     1.1124 H       
  46 H46           -1.9996    -0.1158    -0.6582 H       
  47 H47           -2.4930    -3.6870     0.0144 H       
  48 H48           -1.0487     7.0115    -0.4220 H       
  49 H49            3.3496     7.8478    -0.3416 H       
  50 H50            1.6948    10.0302    -1.3548 H       
  51 H51            1.2043    10.0582     1.0757 H       
  52 H52            2.9476    10.1346     1.4266 H       
  53 H53            4.6051     9.9750    -0.4361 H       
  54 H54            4.0425     9.7849    -2.1141 H       
  55 H55            4.7606    12.1173    -1.6750 H       
  56 H56            3.0172    12.0409    -2.0260 H       
  57 H57            4.2701    12.1454     0.7554 H       
  58 H58            3.4689    13.5014    -0.0737 H       
  59 H59            1.3598    12.2005    -0.1633 H       
  60 H60            1.9223    12.3907     1.5147 H       
  61 H61           -2.2497     4.6241    -1.3353 H       
  62 H62           -2.3477     4.6571     0.4416 H       
  63 H63           -3.3217     6.8957    -1.3884 H       
  64 H64           -4.6776     4.8349    -1.6405 H       
  65 H65           -4.8721     4.7467     0.1266 H       
  66 H66           -5.8015     7.0452    -1.6539 H       
  67 H67           -6.8503     5.7996    -0.9350 H       
  68 H68           -6.8707     7.8731     0.4246 H       
  69 H69           -6.1528     6.5209     1.3325 H       
  70 H70           -4.6024     8.6699    -0.1825 H       
  71 H71           -4.7969     8.5817     1.5846 H       
  72 H72           -3.6730     6.3714     1.5980 H       
  73 H73           -2.6242     7.6171     0.8791 H       
@<TRIPOS>BOND
   1    1    2 1
   2    1    6 1
   3    1   34 1
   4    1   35 1
   5    2    3 1
   6    2   13 1
   7    2   36 1
   8    3    4 1
   9    3   37 1
  10    3   38 1
  11    4    5 1
  12    4   39 1
  13    4   40 1
  14    5    6 1
  15    5   41 1
  16    5   42 1
  17    6    7 1
  18    7    8 ar
  19    7   12 ar
  20    8    9 ar
  21    8   43 1
  22    9   10 ar
  23    9   44 1
  24   10   11 ar
  25   10   18 1
  26   11   12 ar
  27   11   17 1
  28   13   14 1
  29   13   45 1
  30   13   46 1
  31   14   15 2
  32   14   16 1
  33   16   47 1
  34   17   27 1
  35   17   48 1
  36   18   19 2
  37   18   20 am
  38   20   21 1
  39   20   49 1
  40   21   23 1
  41   21   22 1
  42   21   50 1
  43   22   26 1
  44   22   51 1
  45   22   52 1
  46   23   24 1
  47   23   53 1
  48   23   54 1
  49   24   25 1
  50   24   55 1
  51   24   56 1
  52   25   26 1
  53   25   57 1
  54   25   58 1
  55   26   59 1
  56   26   60 1
  57   27   28 1
  58   27   61 1
  59   27   62 1
  60   28   29 1
  61   28   33 1
  62   28   63 1
  63   29   30 1
  64   29   64 1
  65   29   65 1
  66   30   31 1
  67   30   66 1
  68   30   67 1
  69   31   32 1
  70   31   68 1
  71   31   69 1
  72   32   33 1
  73   32   70 1
  74   32   71 1
  75   33   72 1
  76   33   73 1

#	End of record

