#	Name: ASD01000026
#	Creating user name:	WinNT
#	Creation time:	15. 06. 2019 18:54

#	Modifying user name:	WinNT
#	Modification time:	15. 06. 2019 18:54

#	Program:	/corina/corina34_cracker 3.40 0067  02.08.2006

@<TRIPOS>MOLECULE
ASD01000026
  51   52    0    0    0
SMALL
NO_CHARGES


@<TRIPOS>ATOM
   1 C1            -0.2121     1.4625     0.5882 C.ar    
   2 C2            -0.2641     0.0777     0.5277 C.ar    
   3 C3            -1.4862    -0.5667     0.5117 C.ar    
   4 C4            -2.6572     0.1682     0.5556 C.ar    
   5 C5            -2.6076     1.5496     0.6156 C.ar    
   6 C6            -1.3879     2.1974     0.6380 C.ar    
   7 C7            -1.5433    -2.0711     0.4459 C.3     
   8 N8            -0.4140    -2.5327    -0.3788 N.am    
   9 C9            -1.6175    -2.5983     1.8646 C.2     
  10 C10           -0.6496    -3.4488     2.2707 C.2     
  11 N11            0.3601    -3.8195     1.4308 N.am    
  12 C12            0.4744    -3.3850     0.1695 C.2     
  13 C13           -2.6642    -2.2129     2.7340 C.2     
  14 O14           -3.7225    -3.0294     2.9195 O.3     
  15 S15            1.7920    -3.9304    -0.7778 S.2     
  16 O16           -2.6104    -1.1450     3.3149 O.2     
  17 O17            0.9890     2.0983     0.6045 O.3     
  18 Br18          -4.3284    -0.7165     0.5330 Br      
  19 C19           -4.7835    -2.5395     3.7419 C.3     
  20 C20           -5.9384    -3.5431     3.7358 C.3     
  21 C21            1.9898    -7.1540     2.1899 C.3     
  22 C22            0.9971    -6.1775     1.5560 C.3     
  23 C23            1.3761    -4.7452     1.9378 C.3     
  24 C24            0.0065    -3.5828     6.0391 C.3     
  25 C25            0.1335    -3.0904     4.5961 C.3     
  26 C26           -0.6851    -3.9965     3.6742 C.3     
  27 H27            0.6500    -0.4963     0.4927 H       
  28 H28           -3.5231     2.1216     0.6491 H       
  29 H29           -1.3496     3.2757     0.6852 H       
  30 H30           -2.4665    -2.3475    -0.0635 H       
  31 H31           -0.3121    -2.2308    -1.2950 H       
  32 H32            1.3280     2.3212    -0.2733 H       
  33 H33           -4.4218    -2.4081     4.7617 H       
  34 H34           -5.1318    -1.5824     3.3537 H       
  35 H35           -5.6147    -4.4723     4.2048 H       
  36 H36           -6.7812    -3.1305     4.2905 H       
  37 H37           -6.2420    -3.7414     2.7079 H       
  38 H38            1.7198    -8.1744     1.9179 H       
  39 H39            2.9949    -6.9356     1.8291 H       
  40 H40            1.9620    -7.0476     3.2744 H       
  41 H41            1.0249    -6.2839     0.4716 H       
  42 H42           -0.0080    -6.3958     1.9169 H       
  43 H43            2.3437    -4.4969     1.5018 H       
  44 H44            1.4344    -4.6618     3.0231 H       
  45 H45            0.5896    -2.9373     6.6959 H       
  46 H46           -1.0406    -3.5574     6.3409 H       
  47 H47            0.3799    -4.6045     6.1086 H       
  48 H48           -0.2400    -2.0688     4.5266 H       
  49 H49            1.1806    -3.1158     4.2944 H       
  50 H50           -1.7168    -4.0336     4.0237 H       
  51 H51           -0.2621    -5.0011     3.6830 H       
@<TRIPOS>BOND
   1    1    2 ar
   2    1   17 1
   3    1    6 ar
   4    2    3 ar
   5    2   27 1
   6    3    4 ar
   7    3    7 1
   8    4    5 ar
   9    4   18 1
  10    5    6 ar
  11    5   28 1
  12    6   29 1
  13    7    8 1
  14    7    9 1
  15    7   30 1
  16    8   12 am
  17    8   31 1
  18    9   10 2
  19    9   13 1
  20   10   26 1
  21   10   11 1
  22   11   23 1
  23   11   12 am
  24   12   15 2
  25   13   14 1
  26   13   16 2
  27   14   19 1
  28   17   32 1
  29   19   20 1
  30   19   33 1
  31   19   34 1
  32   20   35 1
  33   20   36 1
  34   20   37 1
  35   21   22 1
  36   21   38 1
  37   21   39 1
  38   21   40 1
  39   22   23 1
  40   22   41 1
  41   22   42 1
  42   23   43 1
  43   23   44 1
  44   24   25 1
  45   24   45 1
  46   24   46 1
  47   24   47 1
  48   25   26 1
  49   25   48 1
  50   25   49 1
  51   26   50 1
  52   26   51 1

#	End of record

