#	Name: ASD01040043
#	Creating user name:	WinNT
#	Creation time:	15. 06. 2019 18:58

#	Modifying user name:	WinNT
#	Modification time:	15. 06. 2019 18:58

#	Program:	/corina/corina34_cracker 3.40 0067  02.08.2006

@<TRIPOS>MOLECULE
ASD01040043
  47   49    0    0    0
SMALL
NO_CHARGES


@<TRIPOS>ATOM
   1 O1            -0.0163     1.3545     0.0095 O.3     
   2 C2             0.0021    -0.0041     0.0020 C.ar    
   3 C3             0.0230    -0.7032     1.2014 C.ar    
   4 C4             0.0421    -2.0820     1.1972 C.ar    
   5 C5             0.0401    -2.7740    -0.0132 C.ar    
   6 C6             0.0602    -4.2565    -0.0214 C.2     
   7 C7             1.2390    -4.9848     0.5061 C.ar    
   8 C8             2.4732    -4.8722    -0.1328 C.ar    
   9 C9             3.5677    -5.5505     0.3606 C.ar    
  10 C10            3.4416    -6.3452     1.4920 C.ar    
  11 O11            4.5219    -7.0123     1.9757 O.3     
  12 C12            2.2140    -6.4594     2.1306 C.ar    
  13 C13            1.1170    -5.7792     1.6455 C.ar    
  14 C14           -0.9860    -4.9375    -0.5051 C.2     
  15 C15           -2.1985    -4.2140    -1.0479 C.3     
  16 C16           -2.5106    -4.7654    -2.4431 C.3     
  17 C17           -2.6656    -6.2852    -2.3659 C.3     
  18 C18           -1.3418    -6.9204    -1.9373 C.3     
  19 C19           -1.4795    -8.4441    -1.9491 C.3     
  20 C20           -1.7131    -8.9240    -3.3830 C.3     
  21 C21           -0.9833    -6.4500    -0.5285 C.3     
  22 C22            0.0186    -2.0690    -1.2160 C.ar    
  23 C23           -0.0057    -0.6904    -1.2049 C.ar    
  24 H24            0.8616     1.7598     0.0033 H       
  25 H25            0.0245    -0.1666     2.1387 H       
  26 H26            0.0591    -2.6252     2.1305 H       
  27 H27            2.5717    -4.2547    -1.0134 H       
  28 H28            4.5239    -5.4637    -0.1339 H       
  29 H29            5.0348    -6.5119     2.6251 H       
  30 H30            2.1191    -7.0784     3.0105 H       
  31 H31            0.1633    -5.8652     2.1450 H       
  32 H32           -3.0504    -4.3818    -0.3890 H       
  33 H33           -1.9884    -3.1465    -1.1148 H       
  34 H34           -3.4371    -4.3237    -2.8097 H       
  35 H35           -1.6955    -4.5170    -3.1229 H       
  36 H36           -3.4389    -6.5340    -1.6391 H       
  37 H37           -2.9510    -6.6705    -3.3448 H       
  38 H38           -0.5543    -6.6212    -2.6290 H       
  39 H39           -0.5665    -8.8945    -1.5594 H       
  40 H40           -2.3241    -8.7374    -1.3256 H       
  41 H41           -2.6260    -8.4737    -3.7727 H       
  42 H42           -0.8685    -8.6307    -4.0064 H       
  43 H43           -1.8112   -10.0096    -3.3914 H       
  44 H44            0.0072    -6.8185    -0.2616 H       
  45 H45           -1.7207    -6.8284     0.1794 H       
  46 H46            0.0173    -2.6022    -2.1552 H       
  47 H47           -0.0268    -0.1437    -2.1362 H       
@<TRIPOS>BOND
   1    1    2 1
   2    1   24 1
   3    2    3 ar
   4    2   23 ar
   5    3    4 ar
   6    3   25 1
   7    4   26 1
   8    4    5 ar
   9    5    6 1
  10    5   22 ar
  11    6    7 1
  12    6   14 2
  13    7    8 ar
  14    7   13 ar
  15    8    9 ar
  16    8   27 1
  17    9   28 1
  18    9   10 ar
  19   10   11 1
  20   10   12 ar
  21   11   29 1
  22   12   30 1
  23   12   13 ar
  24   13   31 1
  25   14   15 1
  26   14   21 1
  27   15   16 1
  28   15   32 1
  29   15   33 1
  30   16   34 1
  31   16   35 1
  32   16   17 1
  33   17   36 1
  34   17   37 1
  35   17   18 1
  36   18   38 1
  37   18   19 1
  38   18   21 1
  39   19   20 1
  40   19   39 1
  41   19   40 1
  42   20   41 1
  43   20   42 1
  44   20   43 1
  45   21   44 1
  46   21   45 1
  47   22   46 1
  48   22   23 ar
  49   23   47 1

#	End of record

