#	Name: ASD03092227
#	Creating user name:	WinNT
#	Creation time:	15. 06. 2019 20:32

#	Modifying user name:	WinNT
#	Modification time:	15. 06. 2019 20:32

#	Program:	/corina/corina34_cracker 3.40 0067  02.08.2006

@<TRIPOS>MOLECULE
ASD03092227
  48   50    0    0    0
SMALL
NO_CHARGES


@<TRIPOS>ATOM
   1 N1            -0.3043     1.2771     0.1263 N.pl3   
   2 C2            -0.3590    -0.0652     0.2751 C.2     
   3 N3            -1.6243    -0.4290     0.2171 N.2     
   4 C4            -2.3933     0.6451     0.0342 C.2     
   5 N5            -1.6308     1.7132    -0.0223 N.2     
   6 C6             0.8995     2.1121     0.1265 C.3     
   7 C7             1.4008     2.2844    -1.3087 C.3     
   8 O8             0.4342     3.0148    -2.0665 O.3     
   9 C9             2.7251     3.0505    -1.2978 C.3     
  10 C10            3.2890     3.1145    -2.7187 C.3     
  11 C11            0.7982    -0.9675     0.4690 C.ar    
  12 C12            0.6300    -2.2459     1.0112 C.ar    
  13 C13            1.7364    -3.0545     1.1741 C.ar    
  14 N14            2.9381    -2.6360     0.8269 N.ar    
  15 C15            3.1406    -1.4383     0.3123 C.ar    
  16 C16            2.0899    -0.5674     0.1095 C.ar    
  17 N17           -3.7853     0.6363    -0.0742 N.pl3   
  18 C18           -4.4765    -0.5792    -0.1080 C.ar    
  19 C19           -5.7899    -0.6450     0.3382 C.ar    
  20 C20           -6.4705    -1.8465     0.3039 C.ar    
  21 C21           -5.8442    -2.9847    -0.1748 C.ar    
  22 C22           -4.5344    -2.9215    -0.6204 C.ar    
  23 C23           -3.8520    -1.7213    -0.5933 C.ar    
  24 C24           -7.8956    -1.9187     0.7885 C.3     
  25 C25            1.5694    -4.4341     1.7571 C.3     
  26 F26           -6.5117    -4.1589    -0.2070 F       
  27 H27            0.6640     3.0889     0.5489 H       
  28 H28            1.6734     1.6336     0.7267 H       
  29 H29            1.5518     1.3042    -1.7610 H       
  30 H30            0.2496     3.8988    -1.7206 H       
  31 H31            2.5568     4.0618    -0.9278 H       
  32 H32            3.4353     2.5393    -0.6478 H       
  33 H33            4.2325     3.6603    -2.7109 H       
  34 H34            3.4574     2.1032    -3.0887 H       
  35 H35            2.5789     3.6257    -3.3687 H       
  36 H36           -0.3510    -2.5948     1.2983 H       
  37 H37            4.1419    -1.1369     0.0422 H       
  38 H38            2.2631     0.4115    -0.3125 H       
  39 H39           -4.2730     1.4732    -0.1261 H       
  40 H40           -6.2787     0.2425     0.7121 H       
  41 H41           -4.0479    -3.8105    -0.9935 H       
  42 H42           -2.8306    -1.6724    -0.9408 H       
  43 H43           -8.5725    -1.7203    -0.0426 H       
  44 H44           -8.0934    -2.9130     1.1887 H       
  45 H45           -8.0518    -1.1749     1.5698 H       
  46 H46            1.3891    -5.1485     0.9539 H       
  47 H47            2.4753    -4.7133     2.2951 H       
  48 H48            0.7230    -4.4383     2.4439 H       
@<TRIPOS>BOND
   1    1    2 1
   2    1    6 1
   3    1    5 1
   4    2    3 2
   5    2   11 1
   6    3    4 1
   7    4    5 2
   8    4   17 1
   9    6    7 1
  10    6   27 1
  11    6   28 1
  12    7    8 1
  13    7    9 1
  14    7   29 1
  15    8   30 1
  16    9   10 1
  17    9   31 1
  18    9   32 1
  19   10   33 1
  20   10   34 1
  21   10   35 1
  22   11   12 ar
  23   11   16 ar
  24   12   13 ar
  25   12   36 1
  26   13   14 ar
  27   13   25 1
  28   14   15 ar
  29   15   16 ar
  30   15   37 1
  31   16   38 1
  32   17   18 1
  33   17   39 1
  34   18   19 ar
  35   18   23 ar
  36   19   20 ar
  37   19   40 1
  38   20   21 ar
  39   20   24 1
  40   21   22 ar
  41   21   26 1
  42   22   23 ar
  43   22   41 1
  44   23   42 1
  45   24   43 1
  46   24   44 1
  47   24   45 1
  48   25   46 1
  49   25   47 1
  50   25   48 1

#	End of record

