#	Name: ASD02038994
#	Creating user name:	WinNT
#	Creation time:	15. 06. 2019 20:17

#	Modifying user name:	WinNT
#	Modification time:	15. 06. 2019 20:17

#	Program:	/corina/corina34_cracker 3.40 0067  02.08.2006

@<TRIPOS>MOLECULE
ASD02038994
  40   43    0    0    0
SMALL
NO_CHARGES


@<TRIPOS>ATOM
   1 N1            -0.0159     1.2830     0.0279 N.2     
   2 N2             0.0010    -0.0034     0.0240 N.2     
   3 C3             1.2149     1.7328     0.0066 C.2     
   4 O4             2.0309     0.6626    -0.0113 O.3     
   5 C5             1.2324    -0.4224     0.0003 C.2     
   6 N6             1.6033     3.0614     0.0025 N.pl3   
   7 C7             0.6444     4.0667    -0.0883 C.ar    
   8 C8             1.6837    -1.8602    -0.0120 C.3     
   9 O9             1.8017    -2.3109    -1.3629 O.3     
  10 C10            2.2021    -3.5964    -1.5519 C.ar    
  11 C11            2.3373    -4.0986    -2.8384 C.ar    
  12 C12            2.4806    -4.4036    -0.4589 C.ar    
  13 C13            2.8875    -5.7096    -0.6499 C.ar    
  14 C14            3.0174    -6.2143    -1.9364 C.ar    
  15 C15            2.7436    -5.4037    -3.0304 C.ar    
  16 N16           -0.6269     3.7458    -0.2714 N.ar    
  17 C17            1.0303     5.3988     0.0198 C.ar    
  18 C18            0.0678     6.3878    -0.0721 C.ar    
  19 C19           -1.2546     6.0096    -0.2701 C.ar    
  20 C20           -1.5672     4.6671    -0.3629 C.ar    
  21 Cl21          -2.5018     7.2110    -0.3921 Cl      
  22 N22            3.4292    -7.5380    -2.1341 N.am    
  23 C23            3.9117    -7.9308    -3.3273 C.2     
  24 C24            4.0363    -6.9550    -4.4662 C.3     
  25 C25            2.8848    -5.9546    -4.4256 C.3     
  26 O26            4.2503    -9.0845    -3.4865 O.2     
  27 H27            2.5435     3.2920     0.0629 H       
  28 H28            2.6509    -1.9416     0.4840 H       
  29 H29            0.9529    -2.4748     0.5136 H       
  30 H30            2.1244    -3.4684    -3.6893 H       
  31 H31            2.3796    -4.0106     0.5419 H       
  32 H32            3.1048    -6.3378     0.2014 H       
  33 H33            2.0675     5.6572     0.1739 H       
  34 H34            0.3378     7.4304     0.0085 H       
  35 H35           -2.5934     4.3679    -0.5168 H       
  36 H36            3.3666    -8.1759    -1.4061 H       
  37 H37            4.9811    -6.4182    -4.3812 H       
  38 H38            4.0134    -7.4972    -5.4115 H       
  39 H39            1.9593    -6.4543    -4.7119 H       
  40 H40            3.0871    -5.1396    -5.1205 H       
@<TRIPOS>BOND
   1    1    2 1
   2    1    3 2
   3    2    5 2
   4    3    4 1
   5    3    6 1
   6    4    5 1
   7    5    8 1
   8    6    7 1
   9    6   27 1
  10    7   16 ar
  11    7   17 ar
  12    8    9 1
  13    8   28 1
  14    8   29 1
  15    9   10 1
  16   10   11 ar
  17   10   12 ar
  18   11   15 ar
  19   11   30 1
  20   12   13 ar
  21   12   31 1
  22   13   14 ar
  23   13   32 1
  24   14   15 ar
  25   14   22 1
  26   15   25 1
  27   16   20 ar
  28   17   18 ar
  29   17   33 1
  30   18   19 ar
  31   18   34 1
  32   19   20 ar
  33   19   21 1
  34   20   35 1
  35   22   23 am
  36   22   36 1
  37   23   24 1
  38   23   26 2
  39   24   25 1
  40   24   37 1
  41   24   38 1
  42   25   39 1
  43   25   40 1

#	End of record

