#	Name: ASD01903178
#	Creating user name:	WinNT
#	Creation time:	15. 06. 2019 19:54

#	Modifying user name:	WinNT
#	Modification time:	15. 06. 2019 19:54

#	Program:	/corina/corina34_cracker 3.40 0067  02.08.2006

@<TRIPOS>MOLECULE
ASD01903178
  41   44    0    0    0
SMALL
NO_CHARGES


@<TRIPOS>ATOM
   1 S1            -0.0826     1.6142    -0.3638 S.3     
   2 C2             0.0943    -0.0882     0.0492 C.2     
   3 N3             1.3412    -0.3510     0.2821 N.2     
   4 C4             2.2027     0.6621     0.1704 C.2     
   5 C5             1.6539     1.8450    -0.1756 C.2     
   6 N6            -0.9447    -1.0086     0.1159 N.pl3   
   7 C7            -0.6691    -2.3533     0.3413 C.ar    
   8 N8             0.5703    -2.7328     0.6121 N.ar    
   9 C9             0.8741    -3.9978     0.8325 C.ar    
  10 C10           -0.0974    -4.9774     0.7876 C.ar    
  11 C11           -1.4102    -4.6213     0.5069 C.ar    
  12 C12           -1.6992    -3.2870     0.2859 C.ar    
  13 C13            3.6589     0.4993     0.4100 C.2     
  14 C14            4.4931     1.3967     1.1044 C.2     
  15 N15            5.7056     0.9081     1.1053 N.2     
  16 N16            5.6946    -0.3112     0.4171 N.pl3   
  17 C17            4.4302    -0.5494     0.0026 C.2     
  18 N18            2.3443     3.0471    -0.3541 N.3     
  19 C19            1.5488     4.1864     0.1208 C.3     
  20 C20            2.3887     5.4635     0.0453 C.3     
  21 C21            2.8299     5.6934    -1.4028 C.3     
  22 C22            3.6148     4.4720    -1.8890 C.3     
  23 C23            2.7394     3.2236    -1.7574 C.3     
  24 H24           -1.8620    -0.7135     0.0053 H       
  25 H25            1.8962    -4.2703     1.0505 H       
  26 H26            0.1607    -6.0104     0.9687 H       
  27 H27           -2.1884    -5.3690     0.4657 H       
  28 H28           -2.7094    -2.9750     0.0654 H       
  29 H29            4.1846     2.3273     1.5573 H       
  30 H30            6.4606    -0.8871     0.2673 H       
  31 H31            4.0934    -1.4100    -0.5562 H       
  32 H32            0.6629     4.2967    -0.5046 H       
  33 H33            1.2450     4.0121     1.1530 H       
  34 H34            1.7928     6.3114     0.3831 H       
  35 H35            3.2677     5.3592     0.6813 H       
  36 H36            1.9519     5.8366    -2.0328 H       
  37 H37            3.4644     6.5782    -1.4542 H       
  38 H38            3.8951     4.6114    -2.9331 H       
  39 H39            4.5131     4.3520    -1.2834 H       
  40 H40            3.3004     2.3500    -2.0893 H       
  41 H41            1.8480     3.3385    -2.3740 H       
@<TRIPOS>BOND
   1    1    2 1
   2    1    5 1
   3    2    3 2
   4    2    6 1
   5    3    4 1
   6    4    5 2
   7    4   13 1
   8    5   18 1
   9    6    7 1
  10    6   24 1
  11    7    8 ar
  12    7   12 ar
  13    8    9 ar
  14    9   10 ar
  15    9   25 1
  16   10   11 ar
  17   10   26 1
  18   11   12 ar
  19   11   27 1
  20   12   28 1
  21   13   14 1
  22   13   17 2
  23   14   15 2
  24   14   29 1
  25   15   16 1
  26   16   17 1
  27   16   30 1
  28   17   31 1
  29   18   19 1
  30   18   23 1
  31   19   20 1
  32   19   32 1
  33   19   33 1
  34   20   21 1
  35   20   34 1
  36   20   35 1
  37   21   22 1
  38   21   36 1
  39   21   37 1
  40   22   23 1
  41   22   38 1
  42   22   39 1
  43   23   40 1
  44   23   41 1

#	End of record

