#	Name: ASD01180262
#	Creating user name:	WinNT
#	Creation time:	15. 06. 2019 19:07

#	Modifying user name:	WinNT
#	Modification time:	15. 06. 2019 19:07

#	Program:	/corina/corina34_cracker 3.40 0067  02.08.2006

@<TRIPOS>MOLECULE
ASD01180262
  62   64    0    0    0
SMALL
NO_CHARGES


@<TRIPOS>ATOM
   1 C1             1.0917     2.0397     0.0043 C.2     
   2 C2             0.9641     0.5386     0.0420 C.3     
   3 C3             2.3545    -0.0938    -0.0450 C.3     
   4 O4             2.1829     2.5512    -0.0832 O.2     
   5 O5            -0.0072     2.8084     0.0622 O.3     
   6 C6             3.3334    -2.3250    -0.0721 C.2     
   7 C7             3.2085    -3.7946    -0.0352 C.ar    
   8 C8             4.3504    -4.6080    -0.1010 C.ar    
   9 C9             4.1875    -5.9663    -0.0636 C.ar    
  10 C10            2.9031    -6.4985     0.0380 C.ar    
  11 N11            1.8405    -5.7075     0.0981 N.ar    
  12 C12            1.9535    -4.3958     0.0714 C.ar    
  13 O13            4.4315    -1.8102    -0.1601 O.2     
  14 N14            2.2305    -1.5531    -0.0083 N.am    
  15 N15            2.7345    -7.8722     0.0761 N.pl3   
  16 C16            3.8875    -8.7571    -0.1071 C.3     
  17 C17            4.5739    -8.9861     1.2410 C.3     
  18 C18            5.8415    -9.8173     1.0332 C.3     
  19 C19            6.8526    -9.0101     0.2164 C.3     
  20 C20            2.5998   -12.4244    -1.6564 C.ar    
  21 N21            3.7255   -11.8898    -2.1093 N.ar    
  22 C22            4.1602   -10.7325    -1.6412 C.ar    
  23 C23            3.4236   -10.0778    -0.6653 C.ar    
  24 C24            2.2509   -10.6650    -0.2140 C.ar    
  25 N25            1.8724   -11.8242    -0.7242 N.ar    
  26 C26            2.1402   -13.7213    -2.2099 C.ar    
  27 C27            0.9597   -14.3002    -1.7475 C.ar    
  28 C28            0.5369   -15.5073    -2.2660 C.ar    
  29 C29            1.2826   -16.1427    -3.2426 C.ar    
  30 C30            2.4552   -15.5730    -3.7050 C.ar    
  31 C31            2.8842   -14.3630    -3.1984 C.ar    
  32 C32            0.8159   -17.4608    -3.8046 C.3     
  33 F33           -0.0073   -17.2303    -4.9121 F       
  34 F34            1.9242   -18.2190    -4.1970 F       
  35 F35            0.0975   -18.1567    -2.8264 F       
  36 C36            6.4491   -10.1694     2.3926 C.3     
  37 H37            0.4858     0.2379     0.9741 H       
  38 H38            0.3594     0.2041    -0.8010 H       
  39 H39            2.8328     0.2069    -0.9772 H       
  40 H40            2.9592     0.2407     0.7980 H       
  41 H41            0.1249     3.7659     0.0348 H       
  42 H42            5.3352    -4.1718    -0.1798 H       
  43 H43            5.0460    -6.6198    -0.1126 H       
  44 H44            1.0677    -3.7805     0.1276 H       
  45 H45            1.3545    -1.9637     0.0619 H       
  46 H46            1.8528    -8.2487     0.2241 H       
  47 H47            4.5921    -8.2971    -0.8000 H       
  48 H48            4.8379    -8.0250     1.6822 H       
  49 H49            3.8959    -9.5182     1.9082 H       
  50 H50            5.5915   -10.7337     0.4986 H       
  51 H51            7.7455    -9.6116     0.0467 H       
  52 H52            6.4105    -8.7374    -0.7419 H       
  53 H53            7.1219    -8.1061     0.7627 H       
  54 H54            5.0780   -10.3023    -2.0137 H       
  55 H55            1.6541   -10.1808     0.5448 H       
  56 H56            0.3771   -13.8054    -0.9845 H       
  57 H57           -0.3777   -15.9568    -1.9085 H       
  58 H58            3.0338   -16.0738    -4.4671 H       
  59 H59            3.7972   -13.9166    -3.5638 H       
  60 H60            5.7288   -10.7445     2.9744 H       
  61 H61            7.3521   -10.7616     2.2445 H       
  62 H62            6.6991    -9.2530     2.9271 H       
@<TRIPOS>BOND
   1    1    2 1
   2    1    4 2
   3    1    5 1
   4    2    3 1
   5    2   37 1
   6    2   38 1
   7    3   14 1
   8    3   39 1
   9    3   40 1
  10    5   41 1
  11    6    7 1
  12    6   13 2
  13    6   14 am
  14    7    8 ar
  15    7   12 ar
  16    8    9 ar
  17    8   42 1
  18    9   10 ar
  19    9   43 1
  20   10   11 ar
  21   10   15 1
  22   11   12 ar
  23   12   44 1
  24   14   45 1
  25   15   16 1
  26   15   46 1
  27   16   17 1
  28   16   23 1
  29   16   47 1
  30   17   18 1
  31   17   48 1
  32   17   49 1
  33   18   19 1
  34   18   36 1
  35   18   50 1
  36   19   51 1
  37   19   52 1
  38   19   53 1
  39   20   21 ar
  40   20   25 ar
  41   20   26 1
  42   21   22 ar
  43   22   23 ar
  44   22   54 1
  45   23   24 ar
  46   24   25 ar
  47   24   55 1
  48   26   27 ar
  49   26   31 ar
  50   27   28 ar
  51   27   56 1
  52   28   29 ar
  53   28   57 1
  54   29   30 ar
  55   29   32 1
  56   30   31 ar
  57   30   58 1
  58   31   59 1
  59   32   33 1
  60   32   34 1
  61   32   35 1
  62   36   60 1
  63   36   61 1
  64   36   62 1

#	End of record

