#	Name: ASD06140021
#	Creating user name:	WinNT
#	Creation time:	15. 06. 2019 21:05

#	Modifying user name:	WinNT
#	Modification time:	15. 06. 2019 21:05

#	Program:	/corina/corina34_cracker 3.40 0067  02.08.2006

@<TRIPOS>MOLECULE
ASD06140021
  37   39    0    0    0
SMALL
NO_CHARGES


@<TRIPOS>ATOM
   1 C1             0.0943     0.4546     0.2990 C.ar    
   2 N2            -0.1055    -0.8398     0.0997 N.ar    
   3 C3            -1.3313    -1.3313    -0.0069 C.ar    
   4 N4            -2.4011    -0.5554     0.0807 N.ar    
   5 C5            -2.2742     0.7527     0.2802 C.ar    
   6 C6            -0.9946     1.2986     0.4017 C.ar    
   7 C7             1.4942     0.9996     0.4188 C.3     
   8 N8            -3.3958     1.5624     0.3715 N.pl3   
   9 C9            -4.6648     1.0285     0.1292 C.ar    
  10 C10           -5.7685     1.5175     0.8164 C.ar    
  11 C11           -7.0209     0.9881     0.5743 C.ar    
  12 C12           -7.1768    -0.0276    -0.3510 C.ar    
  13 C13           -6.0802    -0.5168    -1.0368 C.ar    
  14 C14           -4.8258     0.0118    -0.8034 C.ar    
  15 N15           -1.4982    -2.6905    -0.2155 N.pl3   
  16 C16           -0.3829    -3.5083    -0.4208 C.ar    
  17 C17           -0.3898    -4.8213     0.0322 C.ar    
  18 C18            0.7133    -5.6266    -0.1726 C.ar    
  19 C19            1.8241    -5.1270    -0.8275 C.ar    
  20 C20            1.8344    -3.8200    -1.2793 C.ar    
  21 C21            0.7322    -3.0113    -1.0832 C.ar    
  22 H22           -0.8591     2.3576     0.5646 H       
  23 H23            1.8594     1.2832    -0.5683 H       
  24 H24            1.4893     1.8741     1.0694 H       
  25 H25            2.1465     0.2356     0.8418 H       
  26 H26           -3.3001     2.4994     0.6034 H       
  27 H27           -5.6474     2.3106     1.5395 H       
  28 H28           -7.8794     1.3676     1.1086 H       
  29 H29           -8.1573    -0.4401    -0.5381 H       
  30 H30           -6.2054    -1.3101    -1.7589 H       
  31 H31           -3.9697    -0.3707    -1.3393 H       
  32 H32           -2.3887    -3.0749    -0.2193 H       
  33 H33           -1.2567    -5.2120     0.5443 H       
  34 H34            0.7086    -6.6477     0.1793 H       
  35 H35            2.6856    -5.7587    -0.9860 H       
  36 H36            2.7037    -3.4326    -1.7897 H       
  37 H37            0.7408    -1.9908    -1.4367 H       
@<TRIPOS>BOND
   1    1    2 ar
   2    1    7 1
   3    1    6 ar
   4    2    3 ar
   5    3    4 ar
   6    3   15 1
   7    4    5 ar
   8    5    6 ar
   9    5    8 1
  10    6   22 1
  11    7   23 1
  12    7   24 1
  13    7   25 1
  14    8    9 1
  15    8   26 1
  16    9   10 ar
  17    9   14 ar
  18   10   11 ar
  19   10   27 1
  20   11   12 ar
  21   11   28 1
  22   12   13 ar
  23   12   29 1
  24   13   14 ar
  25   13   30 1
  26   14   31 1
  27   15   16 1
  28   15   32 1
  29   16   17 ar
  30   16   21 ar
  31   17   18 ar
  32   17   33 1
  33   18   19 ar
  34   18   34 1
  35   19   20 ar
  36   19   35 1
  37   20   21 ar
  38   20   36 1
  39   21   37 1

#	End of record

