#	Name: ASD04880688
#	Creating user name:	WinNT
#	Creation time:	15. 06. 2019 20:53

#	Modifying user name:	WinNT
#	Modification time:	15. 06. 2019 20:53

#	Program:	/corina/corina34_cracker 3.40 0067  02.08.2006

@<TRIPOS>MOLECULE
ASD04880688
  51   53    0    0    0
SMALL
NO_CHARGES


@<TRIPOS>ATOM
   1 C1            -0.8728     1.9185    -0.9638 C.ar    
   2 C2            -1.0274     0.5507    -0.8831 C.ar    
   3 C3             0.0247    -0.2456    -0.4545 C.ar    
   4 C4             1.2427     0.3327    -0.1039 C.ar    
   5 C5             1.4054     1.7031    -0.1825 C.ar    
   6 C6             0.3459     2.5055    -0.6138 C.ar    
   7 O7            -0.1333    -1.5935    -0.3760 O.3     
   8 C8            -1.4080    -2.1200    -0.7501 C.3     
   9 N9             1.6277     4.5979    -0.5550 N.2     
  10 N10            1.5200     5.9813    -0.6829 N.am    
  11 C11            0.1155     6.3260    -0.9545 C.3     
  12 C12           -0.5960     4.9586    -0.9704 C.3     
  13 C13            0.5134     3.9677    -0.6992 C.2     
  14 C14            2.5362     6.8600    -0.5750 C.2     
  15 C15            3.9135     6.3769    -0.2000 C.3     
  16 O16            2.3421     8.0399    -0.7797 O.2     
  17 C17            4.5108     5.6158    -1.3554 C.ar    
  18 O18            4.7431     7.4979     0.1117 O.3     
  19 C19            5.0675     6.3001    -2.4200 C.ar    
  20 C20            5.6152     5.6021    -3.4797 C.ar    
  21 C21            5.6068     4.2196    -3.4750 C.ar    
  22 C22            5.0512     3.5355    -2.4104 C.ar    
  23 C23            4.5071     4.2337    -1.3483 C.ar    
  24 O24            2.2716    -0.4511     0.3163 O.3     
  25 C25            3.5038     0.2048     0.6224 C.3     
  26 C26            5.7608     7.2179     1.0749 C.3     
  27 C27            5.0416     2.0285    -2.4055 C.3     
  28 F28            5.5262     1.5551    -3.6295 F       
  29 F29            5.8563     1.5604    -1.3689 F       
  30 F30            3.7336     1.5711    -2.2135 F       
  31 H31           -1.6922     2.5356    -1.3017 H       
  32 H32           -1.9699     0.0981    -1.1540 H       
  33 H33            2.3490     2.1527     0.0893 H       
  34 H34           -2.1791    -1.6967    -0.1064 H       
  35 H35           -1.6181    -1.8604    -1.7877 H       
  36 H36           -1.3992    -3.2046    -0.6416 H       
  37 H37           -0.2848     6.9575    -0.1613 H       
  38 H38            0.0216     6.8185    -1.9224 H       
  39 H39           -1.3511     4.9113    -0.1858 H       
  40 H40           -1.0448     4.7724    -1.9461 H       
  41 H41            3.8450     5.7228     0.6693 H       
  42 H42            5.0740     7.3801    -2.4237 H       
  43 H43            6.0494     6.1367    -4.3117 H       
  44 H44            6.0342     3.6742    -4.3035 H       
  45 H45            4.0763     3.6991    -0.5146 H       
  46 H46            3.3642     0.8556     1.4856 H       
  47 H47            4.2658    -0.5409     0.8491 H       
  48 H48            3.8211     0.7999    -0.2338 H       
  49 H49            5.2993     6.8905     2.0065 H       
  50 H50            6.4128     6.4308     0.6962 H       
  51 H51            6.3468     8.1189     1.2567 H       
@<TRIPOS>BOND
   1    1    2 ar
   2    1    6 ar
   3    1   31 1
   4    2    3 ar
   5    2   32 1
   6    3    4 ar
   7    3    7 1
   8    4    5 ar
   9    4   24 1
  10    5    6 ar
  11    5   33 1
  12    6   13 1
  13    7    8 1
  14    8   34 1
  15    8   35 1
  16    8   36 1
  17    9   10 1
  18    9   13 2
  19   10   11 1
  20   10   14 am
  21   11   12 1
  22   11   37 1
  23   11   38 1
  24   12   13 1
  25   12   39 1
  26   12   40 1
  27   14   15 1
  28   14   16 2
  29   15   17 1
  30   15   18 1
  31   15   41 1
  32   17   19 ar
  33   17   23 ar
  34   18   26 1
  35   19   20 ar
  36   19   42 1
  37   20   21 ar
  38   20   43 1
  39   21   22 ar
  40   21   44 1
  41   22   23 ar
  42   22   27 1
  43   23   45 1
  44   24   25 1
  45   25   46 1
  46   25   47 1
  47   25   48 1
  48   26   49 1
  49   26   50 1
  50   26   51 1
  51   27   28 1
  52   27   29 1
  53   27   30 1

#	End of record

