#	Name: ASD01815707
#	Creating user name:	WinNT
#	Creation time:	15. 06. 2019 19:33

#	Modifying user name:	WinNT
#	Modification time:	15. 06. 2019 19:33

#	Program:	/corina/corina34_cracker 3.40 0067  02.08.2006

@<TRIPOS>MOLECULE
ASD01815707
  56   60    0    0    0
SMALL
NO_CHARGES


@<TRIPOS>ATOM
   1 C1            -0.0168     1.3869     0.0097 C.ar    
   2 C2             0.0021    -0.0041     0.0020 C.ar    
   3 C3             1.1801    -0.6897    -0.0129 C.ar    
   4 C4             2.3948     0.0129    -0.0207 C.ar    
   5 C5             2.3717     1.4290    -0.0129 C.ar    
   6 C6             1.1455     2.1015     0.0024 C.ar    
   7 C7             3.6293    -0.6694    -0.0365 C.ar    
   8 C8             4.8031     0.0063    -0.0446 C.ar    
   9 C9             4.8359     1.4095    -0.0374 C.ar    
  10 C10            3.6406     2.1511    -0.0211 C.ar    
  11 C11            6.1026     2.1526    -0.0470 C.2     
  12 N12            6.0328     3.5041    -0.0399 N.am    
  13 C13            4.8302     4.1313    -0.0241 C.2     
  14 N14            3.6961     3.4935    -0.0158 N.2     
  15 O15            7.1745     1.5748    -0.0604 O.2     
  16 C16            7.2655     4.2957    -0.0490 C.3     
  17 C17            7.3176     5.1724     1.2043 C.3     
  18 C18            8.6238     5.9728     1.2088 C.3     
  19 N19            8.7262     6.7178    -0.0535 N.am    
  20 C20            8.5985     5.9834    -1.3196 C.3     
  21 C21            7.2926     5.1829    -1.2957 C.3     
  22 O22            7.2614     4.3448     2.3680 O.3     
  23 C23            3.6424    -2.1763    -0.0442 C.3     
  24 C24            3.5087    -2.6726    -1.4608 C.ar    
  25 C25            4.6370    -2.8929    -2.2370 C.ar    
  26 C26            4.4668    -3.3493    -3.5342 C.ar    
  27 C27            3.1855    -3.5688    -4.0089 C.ar    
  28 N28            2.1351    -3.3477    -3.2415 N.ar    
  29 C29            2.2611    -2.9191    -2.0004 C.ar    
  30 Cl30           2.9576    -4.1406    -5.6321 Cl      
  31 C31            8.9329     8.0496    -0.0500 C.2     
  32 O32            9.0362     8.6445     1.0019 O.2     
  33 C33            9.0356     8.7996    -1.3530 C.3     
  34 H34           -0.9630     1.9076     0.0169 H       
  35 H35           -0.9305    -0.5488     0.0083 H       
  36 H36            1.1786    -1.7697    -0.0183 H       
  37 H37            1.1188     3.1811     0.0081 H       
  38 H38            5.7317    -0.5451    -0.0563 H       
  39 H39            4.8132     5.2111    -0.0182 H       
  40 H40            8.1263     3.6271    -0.0605 H       
  41 H41            6.4705     5.8584     1.2039 H       
  42 H42            8.6217     6.6708     2.0459 H       
  43 H43            9.4696     5.2914     1.3006 H       
  44 H44            8.5797     6.6884    -2.1507 H       
  45 H45            9.4422     5.3029    -1.4340 H       
  46 H46            7.2319     4.5591    -2.1875 H       
  47 H47            6.4457     5.8688    -1.2726 H       
  48 H48            7.2901     4.8351     3.2010 H       
  49 H49            4.5813    -2.5336     0.3789 H       
  50 H50            2.8098    -2.5499     0.5518 H       
  51 H51            5.6250    -2.7125    -1.8397 H       
  52 H52            5.3231    -3.5312    -4.1667 H       
  53 H53            1.3780    -2.7493    -1.4022 H       
  54 H54            8.1102     8.6782    -1.9160 H       
  55 H55            9.2020     9.8577    -1.1511 H       
  56 H56            9.8690     8.4053    -1.9344 H       
@<TRIPOS>BOND
   1    1    2 ar
   2    1    6 ar
   3    1   34 1
   4    2    3 ar
   5    2   35 1
   6    3    4 ar
   7    3   36 1
   8    4    5 ar
   9    4    7 ar
  10    5    6 ar
  11    5   10 ar
  12    6   37 1
  13    7    8 ar
  14    7   23 1
  15    8    9 ar
  16    8   38 1
  17    9   10 ar
  18    9   11 1
  19   10   14 1
  20   11   12 am
  21   11   15 2
  22   12   13 1
  23   12   16 1
  24   13   14 2
  25   13   39 1
  26   16   17 1
  27   16   21 1
  28   16   40 1
  29   17   18 1
  30   17   22 1
  31   17   41 1
  32   18   19 1
  33   18   42 1
  34   18   43 1
  35   19   20 1
  36   19   31 am
  37   20   21 1
  38   20   44 1
  39   20   45 1
  40   21   46 1
  41   21   47 1
  42   22   48 1
  43   23   24 1
  44   23   49 1
  45   23   50 1
  46   24   25 ar
  47   24   29 ar
  48   25   26 ar
  49   25   51 1
  50   26   27 ar
  51   26   52 1
  52   27   28 ar
  53   27   30 1
  54   28   29 ar
  55   29   53 1
  56   31   32 2
  57   31   33 1
  58   33   54 1
  59   33   55 1
  60   33   56 1

#	End of record

