#	Name: ASD01883062
#	Creating user name:	WinNT
#	Creation time:	15. 06. 2019 19:45

#	Modifying user name:	WinNT
#	Modification time:	15. 06. 2019 19:45

#	Program:	/corina/corina34_cracker 3.40 0067  02.08.2006

@<TRIPOS>MOLECULE
ASD01883062
  43   45    0    0    0
SMALL
NO_CHARGES


@<TRIPOS>ATOM
   1 N1             0.0333     1.2626     0.0179 N.am    
   2 C2             0.1265    -0.0730     0.1552 C.2     
   3 C3            -1.0479    -0.8652     0.1725 C.2     
   4 C4            -2.2944    -0.2270     0.0442 C.2     
   5 C5            -2.3254     1.1744    -0.0964 C.2     
   6 C6            -1.1710     1.8786    -0.1008 C.2     
   7 O7             1.2203    -0.6006     0.2642 O.2     
   8 C8            -0.9672    -2.2876     0.3173 C.1     
   9 N9            -0.9032    -3.4159     0.4322 N.1     
  10 C10            1.2562     2.0692     0.0022 C.3     
  11 C11            1.7368     2.2253    -1.4176 C.ar    
  12 C12            2.8660     2.9756    -1.6864 C.ar    
  13 C13            3.3069     3.1188    -2.9889 C.ar    
  14 C14            2.6186     2.5115    -4.0222 C.ar    
  15 C15            1.4896     1.7602    -3.7532 C.ar    
  16 C16            1.0513     1.6134    -2.4507 C.ar    
  17 C17            3.6165     3.6378    -0.5597 C.3     
  18 C18           -3.5469    -1.0109     0.0561 C.ar    
  19 C19           -4.4672    -0.8447     1.0939 C.ar    
  20 C20           -5.6336    -1.5774     1.1014 C.ar    
  21 C21           -5.8952    -2.4812     0.0788 C.ar    
  22 C22           -4.9820    -2.6498    -0.9551 C.ar    
  23 C23           -3.8164    -1.9160    -0.9733 C.ar    
  24 O24           -7.0458    -3.2018     0.0900 O.3     
  25 C25           -7.2513    -4.1128    -0.9917 C.3     
  26 H26           -3.2710     1.6865    -0.1965 H       
  27 H27           -1.2072     2.9525    -0.2093 H       
  28 H28            1.0488     3.0519     0.4257 H       
  29 H29            2.0259     1.5737     0.5939 H       
  30 H30            4.1889     3.7057    -3.1990 H       
  31 H31            2.9626     2.6240    -5.0398 H       
  32 H32            0.9516     1.2859    -4.5607 H       
  33 H33            0.1694     1.0266    -2.2406 H       
  34 H34            4.3168     2.9265    -0.1221 H       
  35 H35            4.1648     4.4977    -0.9444 H       
  36 H36            2.9105     3.9683     0.2022 H       
  37 H37           -4.2643    -0.1430     1.8894 H       
  38 H38           -6.3457    -1.4495     1.9033 H       
  39 H39           -5.1888    -3.3535    -1.7479 H       
  40 H40           -3.1074    -2.0473    -1.7773 H       
  41 H41           -8.2058    -4.6228    -0.8608 H       
  42 H42           -7.2591    -3.5633    -1.9330 H       
  43 H43           -6.4460    -4.8471    -1.0063 H       
@<TRIPOS>BOND
   1    1    2 am
   2    1   10 1
   3    1    6 1
   4    2    3 1
   5    2    7 2
   6    3    4 2
   7    3    8 1
   8    4    5 1
   9    4   18 1
  10    5    6 2
  11    5   26 1
  12    6   27 1
  13    8    9 3
  14   10   11 1
  15   10   28 1
  16   10   29 1
  17   11   12 ar
  18   11   16 ar
  19   12   13 ar
  20   12   17 1
  21   13   14 ar
  22   13   30 1
  23   14   15 ar
  24   14   31 1
  25   15   16 ar
  26   15   32 1
  27   16   33 1
  28   17   34 1
  29   17   35 1
  30   17   36 1
  31   18   19 ar
  32   18   23 ar
  33   19   20 ar
  34   19   37 1
  35   20   21 ar
  36   20   38 1
  37   21   22 ar
  38   21   24 1
  39   22   23 ar
  40   22   39 1
  41   23   40 1
  42   24   25 1
  43   25   41 1
  44   25   42 1
  45   25   43 1

#	End of record

