#	Name: ASD01884141
#	Creating user name:	WinNT
#	Creation time:	15. 06. 2019 19:47

#	Modifying user name:	WinNT
#	Modification time:	15. 06. 2019 19:47

#	Program:	/corina/corina34_cracker 3.40 0067  02.08.2006

@<TRIPOS>MOLECULE
ASD01884141
  36   38    0    0    0
SMALL
NO_CHARGES


@<TRIPOS>ATOM
   1 C1            -0.0168     1.3905     0.0097 C.ar    
   2 C2             0.0021    -0.0041     0.0020 C.ar    
   3 C3            -1.2172    -0.6816     0.0100 C.ar    
   4 C4            -2.3885     0.0455     0.0250 C.ar    
   5 N5            -2.3666     1.3655     0.0315 N.ar    
   6 C6            -1.2337     2.0447     0.0306 C.ar    
   7 N7             1.2069    -0.7020    -0.0136 N.3     
   8 C8             1.3304    -1.5653     1.1678 C.3     
   9 C9             2.7214    -2.2029     1.1922 C.3     
  10 C10            2.9244    -3.0223    -0.0852 C.3     
  11 C11            2.7427    -2.1102    -1.3016 C.3     
  12 C12            1.3511    -1.4752    -1.2537 C.3     
  13 Cl13           1.4671     2.2914     0.0004 Cl      
  14 Cl14          -1.2744     3.7802     0.0393 Cl      
  15 C15            4.3146    -3.6038    -0.0950 C.ar    
  16 C16            4.4903    -4.9742    -0.1411 C.ar    
  17 C17            5.7656    -5.5076    -0.1500 C.ar    
  18 C18            6.8651    -4.6707    -0.1132 C.ar    
  19 C19            6.6895    -3.3003    -0.0680 C.ar    
  20 C20            5.4142    -2.7667    -0.0635 C.ar    
  21 H21           -1.2433    -1.7612     0.0041 H       
  22 H22           -3.3366    -0.4717     0.0313 H       
  23 H23            1.1882    -0.9695     2.0694 H       
  24 H24            0.5729    -2.3479     1.1266 H       
  25 H25            3.4791    -1.4212     1.2474 H       
  26 H26            2.8073    -2.8557     2.0608 H       
  27 H27            2.1912    -3.8281    -0.1214 H       
  28 H28            3.5008    -1.3271    -1.2857 H       
  29 H29            2.8438    -2.6968    -2.2147 H       
  30 H30            0.5934    -2.2583    -1.2836 H       
  31 H31            1.2239    -0.8141    -2.1109 H       
  32 H32            3.6312    -5.6281    -0.1698 H       
  33 H33            5.9028    -6.5783    -0.1853 H       
  34 H34            7.8614    -5.0875    -0.1195 H       
  35 H35            7.5485    -2.6464    -0.0390 H       
  36 H36            5.2770    -1.6959    -0.0320 H       
@<TRIPOS>BOND
   1    1    2 ar
   2    1   13 1
   3    1    6 ar
   4    2    3 ar
   5    2    7 1
   6    3    4 ar
   7    3   21 1
   8    4    5 ar
   9    4   22 1
  10    5    6 ar
  11    6   14 1
  12    7    8 1
  13    7   12 1
  14    8    9 1
  15    8   23 1
  16    8   24 1
  17    9   10 1
  18    9   25 1
  19    9   26 1
  20   10   11 1
  21   10   15 1
  22   10   27 1
  23   11   12 1
  24   11   28 1
  25   11   29 1
  26   12   30 1
  27   12   31 1
  28   15   16 ar
  29   15   20 ar
  30   16   17 ar
  31   16   32 1
  32   17   18 ar
  33   17   33 1
  34   18   19 ar
  35   18   34 1
  36   19   20 ar
  37   19   35 1
  38   20   36 1

#	End of record

