#	Name: ASD01140040
#	Creating user name:	WinNT
#	Creation time:	15. 06. 2019 18:59

#	Modifying user name:	WinNT
#	Modification time:	15. 06. 2019 18:59

#	Program:	/corina/corina34_cracker 3.40 0067  02.08.2006

@<TRIPOS>MOLECULE
ASD01140040
  35   36    0    0    0
SMALL
NO_CHARGES


@<TRIPOS>ATOM
   1 C1            -0.0159     1.3217     0.0093 C.2     
   2 C2             0.0021    -0.0041     0.0020 C.2     
   3 C3            -1.2926    -0.7753     0.0102 C.3     
   4 C4            -1.3737    -1.6492    -1.2430 C.3     
   5 C5            -0.1974    -2.6275    -1.2595 C.3     
   6 O6            -1.3460    -1.6040     1.1731 O.3     
   7 C7            -2.6881    -2.4321    -1.2347 C.3     
   8 C8            -1.3165    -0.7618    -2.4881 C.3     
   9 O9             4.6555     4.4063    -0.0166 O.3     
  10 C10            4.0590     5.6457     0.4087 C.3     
  11 O11            2.6822     5.5188     0.0071 O.3     
  12 C12            2.4263     4.1777     0.0019 C.ar    
  13 C13            3.6410     3.4928    -0.0126 C.ar    
  14 C14            1.2367     3.4737     0.0089 C.ar    
  15 C15            1.2537     2.0780     0.0012 C.ar    
  16 C16            2.4722     1.3986    -0.0136 C.ar    
  17 C17            3.6566     2.1062    -0.0207 C.ar    
  18 H18           -0.9584     1.8490     0.0166 H       
  19 H19            0.9446    -0.5313    -0.0098 H       
  20 H20           -2.1306    -0.0783     0.0220 H       
  21 H21           -0.2382    -3.2596    -0.3725 H       
  22 H22           -0.2551    -3.2501    -2.1523 H       
  23 H23            0.7390    -2.0697    -1.2654 H       
  24 H24           -0.6287    -2.2501     1.2290 H       
  25 H25           -3.5261    -1.7352    -1.2229 H       
  26 H26           -2.7459    -3.0547    -2.1275 H       
  27 H27           -2.7289    -3.0643    -0.3476 H       
  28 H28           -0.3800    -0.2040    -2.4940 H       
  29 H29           -1.3742    -1.3844    -3.3809 H       
  30 H30           -2.1545    -0.0649    -2.4763 H       
  31 H31            4.1338     5.7553     1.4906 H       
  32 H32            4.5289     6.4898    -0.0961 H       
  33 H33            0.2953     4.0029     0.0204 H       
  34 H34            2.4883     0.3187    -0.0191 H       
  35 H35            4.5988     1.5785    -0.0322 H       
@<TRIPOS>BOND
   1    1    2 2
   2    1   15 1
   3    1   18 1
   4    2    3 1
   5    2   19 1
   6    3    4 1
   7    3    6 1
   8    3   20 1
   9    4    5 1
  10    4    7 1
  11    4    8 1
  12    5   21 1
  13    5   22 1
  14    5   23 1
  15    6   24 1
  16    7   25 1
  17    7   26 1
  18    7   27 1
  19    8   28 1
  20    8   29 1
  21    8   30 1
  22    9   10 1
  23    9   13 1
  24   10   11 1
  25   10   31 1
  26   10   32 1
  27   11   12 1
  28   12   13 ar
  29   12   14 ar
  30   13   17 ar
  31   14   15 ar
  32   14   33 1
  33   15   16 ar
  34   16   17 ar
  35   16   34 1
  36   17   35 1

#	End of record

