#	Name: ASD03730502
#	Creating user name:	WinNT
#	Creation time:	15. 06. 2019 20:44

#	Modifying user name:	WinNT
#	Modification time:	15. 06. 2019 20:44

#	Program:	/corina/corina34_cracker 3.40 0067  02.08.2006

@<TRIPOS>MOLECULE
ASD03730502
  57   61    0    0    0
SMALL
NO_CHARGES


@<TRIPOS>ATOM
   1 C1            -0.0184     1.5028     0.0103 C.2     
   2 C2             0.0021    -0.0041     0.0020 C.3     
   3 O3             1.0236     2.1234     0.0037 O.2     
   4 N4            -1.1946     2.1607     0.0195 N.am    
   5 O5             6.2459     2.8794     2.0976 O.3     
   6 C6             7.6663     2.8233     2.3260 C.3     
   7 O7             7.8789     1.4934     2.8350 O.3     
   8 C8             6.8679     0.7368     2.3152 C.ar    
   9 C9             5.8636     1.5896     1.8629 C.ar    
  10 C10            6.7212    -0.6329     2.1884 C.ar    
  11 C11            5.5735    -1.1688     1.6121 C.ar    
  12 C12            4.5736    -0.3071     1.1716 C.ar    
  13 C13            4.7194     1.0592     1.2910 C.ar    
  14 O14            5.2412    -2.4710     1.3795 O.3     
  15 C15            3.4673    -1.1739     0.6323 C.3     
  16 C16            3.8195    -2.5682     1.1684 C.3     
  17 N17            1.3897    -0.4735    -0.0138 N.am    
  18 C18            2.1130    -0.7212     1.0965 C.2     
  19 C19            3.4026    -1.1504    -0.8661 C.ar    
  20 C20            4.3041    -1.4527    -1.8622 C.ar    
  21 C21            3.9367    -1.3289    -3.1903 C.ar    
  22 C22            2.6624    -0.9003    -3.5148 C.ar    
  23 C23            1.7562    -0.5954    -2.5207 C.ar    
  24 C24            2.1172    -0.7175    -1.1811 C.ar    
  25 O25            1.7424    -0.6020     2.2452 O.2     
  26 C26           -1.2145     3.6256     0.0275 C.3     
  27 C27           -2.6637     4.1159     0.0371 C.3     
  28 C28           -2.6845     5.6457     0.0455 C.3     
  29 C29           -1.9761     6.1723    -1.2043 C.3     
  30 C30           -4.1337     6.1361     0.0550 C.3     
  31 C31           -1.9643     6.1587     1.2941 C.3     
  32 H32           -0.4983    -0.3791     0.8948 H       
  33 H33           -0.5153    -0.3696    -0.8850 H       
  34 H34           -2.0280     1.6644     0.0207 H       
  35 H35            8.2103     2.9676     1.3925 H       
  36 H36            7.9653     3.5680     3.0637 H       
  37 H37            7.5027    -1.2907     2.5390 H       
  38 H38            3.9391     1.7171     0.9379 H       
  39 H39            3.5894    -3.3363     0.4301 H       
  40 H40            3.3012    -2.7643     2.1070 H       
  41 H41            5.2987    -1.7870    -1.6065 H       
  42 H42            4.6432    -1.5667    -3.9717 H       
  43 H43            2.3756    -0.8035    -4.5515 H       
  44 H44            0.7631    -0.2608    -2.7820 H       
  45 H45           -0.7014     3.9910     0.9171 H       
  46 H46           -0.7098     4.0007    -0.8628 H       
  47 H47           -3.1768     3.7505    -0.8525 H       
  48 H48           -3.1683     3.7408     0.9274 H       
  49 H49           -2.4892     5.8068    -2.0939 H       
  50 H50           -1.9909     7.2622    -1.1983 H       
  51 H51           -0.9437     5.8229    -1.2111 H       
  52 H52           -4.6384     5.7610     0.9454 H       
  53 H53           -4.1485     7.2260     0.0610 H       
  54 H54           -4.6468     5.7706    -0.8346 H       
  55 H55           -0.9318     5.8094     1.2873 H       
  56 H56           -1.9791     7.2486     1.3001 H       
  57 H57           -2.4689     5.7836     2.1845 H       
@<TRIPOS>BOND
   1    1    2 1
   2    1    3 2
   3    1    4 am
   4    2   17 1
   5    2   32 1
   6    2   33 1
   7    4   26 1
   8    4   34 1
   9    5    6 1
  10    5    9 1
  11    6    7 1
  12    6   35 1
  13    6   36 1
  14    7    8 1
  15    8    9 ar
  16    8   10 ar
  17    9   13 ar
  18   10   11 ar
  19   10   37 1
  20   11   12 ar
  21   11   14 1
  22   12   13 ar
  23   12   15 1
  24   13   38 1
  25   14   16 1
  26   15   16 1
  27   15   18 1
  28   15   19 1
  29   16   39 1
  30   16   40 1
  31   17   18 am
  32   17   24 1
  33   18   25 2
  34   19   20 ar
  35   19   24 ar
  36   20   21 ar
  37   20   41 1
  38   21   22 ar
  39   21   42 1
  40   22   23 ar
  41   22   43 1
  42   23   24 ar
  43   23   44 1
  44   26   27 1
  45   26   45 1
  46   26   46 1
  47   27   28 1
  48   27   47 1
  49   27   48 1
  50   28   29 1
  51   28   30 1
  52   28   31 1
  53   29   49 1
  54   29   50 1
  55   29   51 1
  56   30   52 1
  57   30   53 1
  58   30   54 1
  59   31   55 1
  60   31   56 1
  61   31   57 1

#	End of record

