#	Name: ASD02030521
#	Creating user name:	WinNT
#	Creation time:	15. 06. 2019 20:15

#	Modifying user name:	WinNT
#	Modification time:	15. 06. 2019 20:15

#	Program:	/corina/corina34_cracker 3.40 0067  02.08.2006

@<TRIPOS>MOLECULE
ASD02030521
  59   62    0    0    0
SMALL
NO_CHARGES


@<TRIPOS>ATOM
   1 N1            -0.2117     1.4222    -0.1393 N.am    
   2 C2            -0.0215    -0.0114     0.1225 C.3     
   3 C3            -0.9186    -0.4181     1.2981 C.3     
   4 N4            -2.2775     0.0819     1.0467 N.am    
   5 C5            -2.4677     1.5154     0.7850 C.3     
   6 C6            -1.5713     1.9231    -0.3851 C.3     
   7 C7             0.8413     2.2634    -0.1482 C.2     
   8 C8             2.1837     1.7715     0.2280 C.2     
   9 N9             3.2623     2.5085     0.3833 N.2     
  10 N10            2.5162     0.4916     0.4776 N.2     
  11 C11            3.7905     0.4718     0.7751 C.2     
  12 N12            4.2436     1.7408     0.7121 N.pl3   
  13 O13            0.6872     3.4267    -0.4656 O.2     
  14 C14           -3.3305    -0.7594     1.0557 C.2     
  15 C15           -4.7026    -0.2279     0.9116 C.ar    
  16 O16           -3.1521    -1.9551     1.1822 O.2     
  17 C17           -1.5445     3.4482    -0.5044 C.3     
  18 C18           -2.1090     1.3125    -1.6809 C.3     
  19 C19            5.5592     2.1542     0.9615 C.ar    
  20 C20            5.8968     3.4969     0.8620 C.ar    
  21 C21            7.1955     3.9016     1.1092 C.ar    
  22 C22            8.1577     2.9692     1.4549 C.ar    
  23 C23            7.8233     1.6311     1.5545 C.ar    
  24 C24            6.5263     1.2220     1.3143 C.ar    
  25 Cl25           7.6194     5.5805     0.9853 Cl      
  26 C26           -5.6739    -0.9688     0.2371 C.ar    
  27 C27           -6.9525    -0.4670     0.1061 C.ar    
  28 C28           -7.2725     0.7677     0.6416 C.ar    
  29 C29           -6.3138     1.5078     1.3112 C.ar    
  30 C30           -5.0335     1.0148     1.4546 C.ar    
  31 C31           -8.0027    -1.2655    -0.6224 C.3     
  32 C32           -9.1217    -1.5521     0.2899 C.1     
  33 C33           -8.5140    -0.4627    -1.8203 C.3     
  34 N34           -9.9854    -1.7732     0.9940 N.1     
  35 H35           -0.2965    -0.5845    -0.7629 H       
  36 H36            1.0215    -0.2019     0.3752 H       
  37 H37           -0.9386    -1.5045     1.3842 H       
  38 H38           -0.5333     0.0174     2.2200 H       
  39 H39           -3.5107     1.7060     0.5322 H       
  40 H40           -2.1927     2.0886     1.6704 H       
  41 H41            4.3730    -0.4017     1.0283 H       
  42 H42           -1.0486     3.8723     0.3687 H       
  43 H43           -1.0006     3.7327    -1.4052 H       
  44 H44           -2.5653     3.8261    -0.5618 H       
  45 H45           -3.1224     1.6721    -1.8588 H       
  46 H46           -1.4685     1.6044    -2.5132 H       
  47 H47           -2.1190     0.2260    -1.5938 H       
  48 H48            5.1460     4.2246     0.5915 H       
  49 H49            9.1719     3.2870     1.6470 H       
  50 H50            8.5765     0.9055     1.8242 H       
  51 H51            6.2661     0.1768     1.3927 H       
  52 H52           -5.4253    -1.9328    -0.1817 H       
  53 H53           -8.2747     1.1560     0.5363 H       
  54 H54           -6.5700     2.4712     1.7267 H       
  55 H55           -4.2863     1.5934     1.9774 H       
  56 H56           -7.5693    -2.2028    -0.9714 H       
  57 H57           -9.2735    -1.0403    -2.3472 H       
  58 H58           -8.9474     0.4745    -1.4713 H       
  59 H59           -7.6853    -0.2505    -2.4958 H       
@<TRIPOS>BOND
   1    1    2 1
   2    1    7 am
   3    1    6 1
   4    2    3 1
   5    2   35 1
   6    2   36 1
   7    3    4 1
   8    3   37 1
   9    3   38 1
  10    4    5 1
  11    4   14 am
  12    5    6 1
  13    5   39 1
  14    5   40 1
  15    6   17 1
  16    6   18 1
  17    7    8 1
  18    7   13 2
  19    8    9 2
  20    8   10 1
  21    9   12 1
  22   10   11 2
  23   11   12 1
  24   11   41 1
  25   12   19 1
  26   14   15 1
  27   14   16 2
  28   15   26 ar
  29   15   30 ar
  30   17   42 1
  31   17   43 1
  32   17   44 1
  33   18   45 1
  34   18   46 1
  35   18   47 1
  36   19   20 ar
  37   19   24 ar
  38   20   21 ar
  39   20   48 1
  40   21   22 ar
  41   21   25 1
  42   22   23 ar
  43   22   49 1
  44   23   24 ar
  45   23   50 1
  46   24   51 1
  47   26   27 ar
  48   26   52 1
  49   27   28 ar
  50   27   31 1
  51   28   29 ar
  52   28   53 1
  53   29   30 ar
  54   29   54 1
  55   30   55 1
  56   31   32 1
  57   31   33 1
  58   31   56 1
  59   32   34 3
  60   33   57 1
  61   33   58 1
  62   33   59 1

#	End of record

