#	Name: ASD01911554
#	Creating user name:	WinNT
#	Creation time:	15. 06. 2019 19:58

#	Modifying user name:	WinNT
#	Modification time:	15. 06. 2019 19:58

#	Program:	/corina/corina34_cracker 3.40 0067  02.08.2006

@<TRIPOS>MOLECULE
ASD01911554
  40   42    0    0    0
SMALL
NO_CHARGES


@<TRIPOS>ATOM
   1 N1            -0.0162     1.3436     0.0094 N.am    
   2 C2             1.0190     3.4919    -0.5999 C.3     
   3 C3             1.2424     2.0932     0.0014 C.3     
   4 C4             0.0021    -0.0041     0.0020 C.2     
   5 C5            -1.2566    -0.7538     0.0100 C.2     
   6 C6            -1.3813    -2.1170     0.0039 C.2     
   7 S7            -2.8763    -0.0590     0.0369 S.3     
   8 C8            -3.5692    -1.6782     0.0304 C.2     
   9 N9            -2.6048    -2.5646     0.0139 N.2     
  10 C10           -4.9692    -1.9790     0.0455 C.1     
  11 C11           -6.1169    -2.2256     0.0579 C.1     
  12 C12           -7.5169    -2.5264     0.0731 C.ar    
  13 C13           -7.9500    -3.8558     0.0660 C.ar    
  14 C14           -9.2998    -4.1374     0.0811 C.ar    
  15 C15          -10.2249    -3.1083     0.1029 C.ar    
  16 C16           -9.8039    -1.7899     0.1101 C.ar    
  17 C17           -8.4575    -1.4922     0.1010 C.ar    
  18 O18            1.0643    -0.5982    -0.0113 O.2     
  19 C19           -0.1868    -3.0357    -0.0137 C.3     
  20 C20            1.3869     4.5086     0.5004 C.3     
  21 C21            1.2153     3.7177     1.8211 C.3     
  22 C22            1.7383     2.3088     1.4462 C.3     
  23 H23           -0.8627     1.8170     0.0241 H       
  24 H24            1.6628     3.6322    -1.4682 H       
  25 H25           -0.0258     3.6129    -0.8858 H       
  26 H26            1.9940     1.5544    -0.5756 H       
  27 H27           -7.2293    -4.6600     0.0482 H       
  28 H28           -9.6360    -5.1638     0.0756 H       
  29 H29          -11.2807    -3.3351     0.1140 H       
  30 H30          -10.5318    -0.9921     0.1268 H       
  31 H31           -8.1305    -0.4630     0.1065 H       
  32 H32            0.1120    -3.2628     1.0096 H       
  33 H33           -0.4468    -3.9598    -0.5299 H       
  34 H34            0.6383    -2.5489    -0.5337 H       
  35 H35            2.4193     4.8388     0.3850 H       
  36 H36            0.7077     5.3607     0.4750 H       
  37 H37            1.8202     4.1557     2.6151 H       
  38 H38            0.1658     3.6753     2.1123 H       
  39 H39            1.3155     1.5556     2.1111 H       
  40 H40            2.8274     2.2838     1.4835 H       
@<TRIPOS>BOND
   1    1    4 am
   2    1    3 1
   3    1   23 1
   4    2    3 1
   5    2   20 1
   6    2   24 1
   7    2   25 1
   8    3   22 1
   9    3   26 1
  10    4    5 1
  11    4   18 2
  12    5    6 2
  13    5    7 1
  14    6   19 1
  15    6    9 1
  16    7    8 1
  17    8    9 2
  18    8   10 1
  19   10   11 3
  20   11   12 1
  21   12   13 ar
  22   12   17 ar
  23   13   14 ar
  24   13   27 1
  25   14   15 ar
  26   14   28 1
  27   15   16 ar
  28   15   29 1
  29   16   17 ar
  30   16   30 1
  31   17   31 1
  32   19   32 1
  33   19   33 1
  34   19   34 1
  35   20   21 1
  36   20   35 1
  37   20   36 1
  38   21   22 1
  39   21   37 1
  40   21   38 1
  41   22   39 1
  42   22   40 1

#	End of record

