#	Name: ASD00431433
#	Creating user name:	WinNT
#	Creation time:	15. 06. 2019 18:35

#	Modifying user name:	WinNT
#	Modification time:	15. 06. 2019 18:35

#	Program:	/corina/corina34_cracker 3.40 0067  02.08.2006

@<TRIPOS>MOLECULE
ASD00431433
  29   30    0    0    0
SMALL
NO_CHARGES


@<TRIPOS>ATOM
   1 S1            -2.8005     1.3286     0.0262 S.3     
   2 C2            -2.3672    -0.3241    -0.0294 C.2     
   3 N3            -3.4301    -1.0677    -0.1138 N.2     
   4 C4            -4.5887    -0.4558    -0.1404 C.2     
   5 C5            -4.5057     0.8965    -0.0743 C.2     
   6 C6            -5.6080     1.8105    -0.0839 C.1     
   7 N7            -6.4825     2.5355    -0.0916 N.1     
   8 O8            -1.0981    -0.7917     0.0087 O.3     
   9 C9             0.3531    -2.6814    -0.0097 C.ar    
  10 C10           -0.9156    -2.1358     0.1043 C.ar    
  11 C11           -2.0010    -2.9809     0.3184 C.ar    
  12 C12           -1.7685    -4.3420     0.4096 C.ar    
  13 C13           -0.4695    -4.8166     0.2854 C.ar    
  14 N14            0.5379    -3.9845     0.0829 N.ar    
  15 O15           -0.2311    -6.1501     0.3734 O.3     
  16 C16            1.1259    -6.5769     0.2375 C.3     
  17 C17            1.3433    -7.8530     1.0530 C.3     
  18 C18            1.4277    -6.8558    -1.2363 C.3     
  19 H19           -5.5287    -0.9829    -0.2096 H       
  20 H20            1.1997    -2.0330    -0.1803 H       
  21 H21           -3.0010    -2.5835     0.4115 H       
  22 H22           -2.5872    -5.0266     0.5757 H       
  23 H23            1.7911    -5.7945     0.6028 H       
  24 H24            0.6781    -8.6354     0.6877 H       
  25 H25            2.3784    -8.1785     0.9494 H       
  26 H26            1.1284    -7.6543     2.1030 H       
  27 H27            0.7625    -7.6382    -1.6016 H       
  28 H28            1.2728    -5.9467    -1.8173 H       
  29 H29            2.4628    -7.1813    -1.3399 H       
@<TRIPOS>BOND
   1    1    2 1
   2    1    5 1
   3    2    3 2
   4    2    8 1
   5    3    4 1
   6    4    5 2
   7    4   19 1
   8    5    6 1
   9    6    7 3
  10    8   10 1
  11    9   10 ar
  12    9   14 ar
  13    9   20 1
  14   10   11 ar
  15   11   12 ar
  16   11   21 1
  17   12   13 ar
  18   12   22 1
  19   13   14 ar
  20   13   15 1
  21   15   16 1
  22   16   17 1
  23   16   18 1
  24   16   23 1
  25   17   24 1
  26   17   25 1
  27   17   26 1
  28   18   27 1
  29   18   28 1
  30   18   29 1

#	End of record

