#	Name: ASD01230374
#	Creating user name:	WinNT
#	Creation time:	15. 06. 2019 19:14

#	Modifying user name:	WinNT
#	Modification time:	15. 06. 2019 19:14

#	Program:	/corina/corina34_cracker 3.40 0067  02.08.2006

@<TRIPOS>MOLECULE
ASD01230374
  42   44    0    0    0
SMALL
NO_CHARGES


@<TRIPOS>ATOM
   1 S1            -0.0204     1.6502     0.0111 S.o2    
   2 N2             0.0021    -0.0041     0.0020 N.am    
   3 C3             1.0256    -0.6894    -0.4563 C.2     
   4 N4             2.1713    -0.1507    -0.9688 N.pl3   
   5 C5             2.3936     1.2863    -1.1471 C.3     
   6 C6             1.7498     2.0759    -0.0035 C.3     
   7 C7             0.8928    -2.1077    -0.3981 C.2     
   8 C8             1.9093    -2.9032    -0.8069 C.2     
   9 C9             3.0927    -2.3153    -1.2868 C.2     
  10 C10            3.1981    -0.9765    -1.3566 C.2     
  11 S11           -0.5972    -2.8269     0.2079 S.o2    
  12 O12           -1.6625    -2.1697    -0.4648 O.2     
  13 O13           -0.4066    -4.2346     0.1726 O.2     
  14 C14           -0.7353    -2.3860     1.9082 C.ar    
  15 C15           -1.3910    -1.2241     2.2700 C.ar    
  16 C16           -1.4993    -0.8782     3.6039 C.ar    
  17 C17           -0.9523    -1.6945     4.5762 C.ar    
  18 C18           -0.2974    -2.8569     4.2146 C.ar    
  19 C19           -0.1929    -3.2050     2.8809 C.ar    
  20 C20           -1.0695    -1.3169     6.0305 C.3     
  21 C21           -1.8234    -2.4149     6.7833 C.3     
  22 C22            0.3290    -1.1555     6.6298 C.3     
  23 O23           -0.6348     2.0061    -1.2198 O.2     
  24 O24           -0.6111     1.9928     1.2573 O.2     
  25 H25            3.4652     1.4851    -1.1626 H       
  26 H26            1.9560     1.6031    -2.0938 H       
  27 H27            1.8733     3.1452    -0.1748 H       
  28 H28            2.2071     1.7954     0.9453 H       
  29 H29            1.8121    -3.9780    -0.7645 H       
  30 H30            3.9172    -2.9389    -1.5995 H       
  31 H31            4.1135    -0.5393    -1.7270 H       
  32 H32           -1.8184    -0.5863     1.5103 H       
  33 H33           -2.0110     0.0300     3.8865 H       
  34 H34            0.1303    -3.4944     4.9742 H       
  35 H35            0.3156    -4.1150     2.5985 H       
  36 H36           -1.6134    -0.3764     6.1189 H       
  37 H37           -1.2794    -3.3553     6.6948 H       
  38 H38           -1.9082    -2.1418     7.8351 H       
  39 H39           -2.8197    -2.5299     6.3564 H       
  40 H40            0.8661    -0.3732     6.0934 H       
  41 H41            0.2442    -0.8824     7.6816 H       
  42 H42            0.8729    -2.0959     6.5413 H       
@<TRIPOS>BOND
   1    1    2 am
   2    1    6 1
   3    1   23 2
   4    1   24 2
   5    2    3 2
   6    3    4 1
   7    3    7 1
   8    4    5 1
   9    4   10 1
  10    5    6 1
  11    5   25 1
  12    5   26 1
  13    6   27 1
  14    6   28 1
  15    7    8 2
  16    7   11 1
  17    8    9 1
  18    8   29 1
  19    9   10 2
  20    9   30 1
  21   10   31 1
  22   11   12 2
  23   11   13 2
  24   11   14 1
  25   14   15 ar
  26   14   19 ar
  27   15   16 ar
  28   15   32 1
  29   16   17 ar
  30   16   33 1
  31   17   18 ar
  32   17   20 1
  33   18   19 ar
  34   18   34 1
  35   19   35 1
  36   20   21 1
  37   20   22 1
  38   20   36 1
  39   21   37 1
  40   21   38 1
  41   21   39 1
  42   22   40 1
  43   22   41 1
  44   22   42 1

#	End of record

