#	Name: ASD01230053
#	Creating user name:	WinNT
#	Creation time:	15. 06. 2019 19:11

#	Modifying user name:	WinNT
#	Modification time:	15. 06. 2019 19:11

#	Program:	/corina/corina34_cracker 3.40 0067  02.08.2006

@<TRIPOS>MOLECULE
ASD01230053
  59   62    0    0    0
SMALL
NO_CHARGES


@<TRIPOS>ATOM
   1 P1            -0.0180     1.4758     0.0102 P.3     
   2 O2             0.0021    -0.0041     0.0020 O.2     
   3 O3             1.4924     2.0330    -0.0013 O.3     
   4 O4            -0.7967     2.0091    -1.2942 O.3     
   5 N5            -0.8057     2.0185     1.3948 N.3     
   6 N6            -2.6500     4.9581     1.7018 N.am    
   7 C7            -2.1633     3.9966     0.8984 C.2     
   8 C8            -0.8449     3.4864     1.4370 C.3     
   9 C9            -0.8138     3.9868     2.8998 C.3     
  10 C10           -1.7505     5.2134     2.8331 C.3     
  11 O11           -2.7029     3.5960    -0.1112 O.2     
  12 C12           -3.9129     5.6648     1.4741 C.3     
  13 C13            2.3232     1.3961     0.8653 C.ar    
  14 C14            3.0337     0.2784     0.4523 C.ar    
  15 C15            3.8775    -0.3674     1.3351 C.ar    
  16 C16            4.0143     0.0993     2.6294 C.ar    
  17 C17            3.3069     1.2128     3.0436 C.ar    
  18 C18            2.4665     1.8658     2.1628 C.ar    
  19 C19           -2.0843     1.5269    -1.6833 C.3     
  20 O20           -1.6795     1.8726    -4.0670 O.3     
  21 C21           -2.5317     2.2407    -2.9605 C.3     
  22 C22           -3.9427     1.7678    -3.3748 C.3     
  23 C23           -3.8852     1.7216    -4.9181 C.3     
  24 C24           -2.4461     2.1721    -5.2537 C.3     
  25 O25           -4.9321     2.7020    -2.9384 O.3     
  26 F26           -4.1113     0.4200    -5.3784 F       
  27 F27           -4.8173     2.6069    -5.4701 F       
  28 C28           -1.7960     0.0815    -6.3143 C.2     
  29 N29           -1.3294    -0.6289    -7.3397 N.2     
  30 C30           -0.9835    -0.0342    -8.4740 C.2     
  31 C31           -1.1113     1.3649    -8.5946 C.2     
  32 C32           -1.5872     2.0731    -7.5431 C.2     
  33 N33           -1.9295     1.4178    -6.3985 N.am    
  34 O34           -2.1121    -0.4893    -5.2836 O.2     
  35 N35           -0.5023    -0.7781    -9.5263 N.pl3   
  36 H36           -1.7348     1.6300     1.4581 H       
  37 H37           -0.0135     3.9057     0.8705 H       
  38 H38           -1.2084     3.2311     3.5790 H       
  39 H39            0.1947     4.2815     3.1899 H       
  40 H40           -1.1722     6.1205     2.6579 H       
  41 H41           -2.3222     5.3021     3.7569 H       
  42 H42           -4.3811     5.2881     0.5647 H       
  43 H43           -4.5792     5.5001     2.3209 H       
  44 H44           -3.7180     6.7319     1.3673 H       
  45 H45            2.9269    -0.0868    -0.5585 H       
  46 H46            4.4305    -1.2378     1.0141 H       
  47 H47            4.6745    -0.4069     3.3181 H       
  48 H48            3.4149     1.5750     4.0553 H       
  49 H49            1.9180     2.7383     2.4854 H       
  50 H50           -2.0302     0.4538    -1.8667 H       
  51 H51           -2.8019     1.7236    -0.8868 H       
  52 H52           -2.5207     3.3210    -2.8162 H       
  53 H53           -4.1474     0.7765    -2.9704 H       
  54 H54           -2.4220     3.2419    -5.4611 H       
  55 H55           -5.8371     2.4543    -3.1721 H       
  56 H56           -0.8336     1.8639    -9.5112 H       
  57 H57           -1.6939     3.1457    -7.6109 H       
  58 H58           -0.4152    -1.7404    -9.4403 H       
  59 H59           -0.2502    -0.3404   -10.3544 H       
@<TRIPOS>BOND
   1    1    2 2
   2    1    3 1
   3    1    4 1
   4    1    5 1
   5    3   13 1
   6    4   19 1
   7    5    8 1
   8    5   36 1
   9    6    7 am
  10    6   10 1
  11    6   12 1
  12    7    8 1
  13    7   11 2
  14    8    9 1
  15    8   37 1
  16    9   10 1
  17    9   38 1
  18    9   39 1
  19   10   40 1
  20   10   41 1
  21   12   42 1
  22   12   43 1
  23   12   44 1
  24   13   14 ar
  25   13   18 ar
  26   14   15 ar
  27   14   45 1
  28   15   16 ar
  29   15   46 1
  30   16   17 ar
  31   16   47 1
  32   17   18 ar
  33   17   48 1
  34   18   49 1
  35   19   21 1
  36   19   50 1
  37   19   51 1
  38   20   21 1
  39   20   24 1
  40   21   22 1
  41   21   52 1
  42   22   23 1
  43   22   25 1
  44   22   53 1
  45   23   24 1
  46   23   26 1
  47   23   27 1
  48   24   33 1
  49   24   54 1
  50   25   55 1
  51   28   29 1
  52   28   33 am
  53   28   34 2
  54   29   30 2
  55   30   31 1
  56   30   35 1
  57   31   32 2
  58   31   56 1
  59   32   33 1
  60   32   57 1
  61   35   58 1
  62   35   59 1

#	End of record

