#	Name: ASD01916128
#	Creating user name:	WinNT
#	Creation time:	15. 06. 2019 20:06

#	Modifying user name:	WinNT
#	Modification time:	15. 06. 2019 20:06

#	Program:	/corina/corina34_cracker 3.40 0067  02.08.2006

@<TRIPOS>MOLECULE
ASD01916128
  44   47    0    0    0
SMALL
NO_CHARGES


@<TRIPOS>ATOM
   1 C1            -0.1115     1.3883     0.0734 C.ar    
   2 C2            -0.0792     0.0053     0.0585 C.ar    
   3 C3            -1.2649    -0.7144     0.0488 C.ar    
   4 C4            -2.4803    -0.0456     0.0541 C.ar    
   5 C5            -2.5085     1.3358     0.0690 C.ar    
   6 C6            -1.3269     2.0527     0.0844 C.ar    
   7 O7            -1.2360    -2.0730     0.0338 O.3     
   8 C8            -2.4952    -2.7486     0.0245 C.3     
   9 C9            -2.2660    -4.2380     0.0082 C.2     
  10 C10           -1.0194    -4.8766     0.0029 C.2     
  11 N11           -3.1986    -5.1582     0.0024 N.2     
  12 N12           -2.5763    -6.4094    -0.0085 N.pl3   
  13 C13           -1.2387    -6.2050    -0.0129 C.2     
  14 C14           -3.2240    -7.7240    -0.0052 C.3     
  15 C15           -2.2218    -8.7821    -0.4794 C.3     
  16 N16           -0.9377    -8.5753     0.2072 N.am    
  17 C17           -0.2142    -7.3145    -0.0382 C.3     
  18 C18           -0.4373    -9.5094     1.0400 C.2     
  19 C19            0.9136    -9.3387     1.6162 C.ar    
  20 O20           -1.0966   -10.4922     1.3175 O.2     
  21 C21            1.1835    -9.7799     2.9126 C.ar    
  22 C22            2.4461    -9.6176     3.4442 C.ar    
  23 C23            3.4437    -9.0190     2.6953 C.ar    
  24 C24            3.1826    -8.5790     1.4098 C.ar    
  25 C25            1.9260    -8.7409     0.8640 C.ar    
  26 F26            1.0424     2.0909     0.0828 F       
  27 H27            0.8681    -0.5133     0.0541 H       
  28 H28           -3.4043    -0.6045     0.0462 H       
  29 H29           -3.4550     1.8559     0.0731 H       
  30 H30           -1.3513     3.1323     0.0964 H       
  31 H31           -3.0596    -2.4775     0.9167 H       
  32 H32           -3.0570    -2.4577    -0.8631 H       
  33 H33           -0.0550    -4.3906     0.0101 H       
  34 H34           -3.5558    -7.9638     1.0050 H       
  35 H35           -4.0822    -7.7086    -0.6769 H       
  36 H36           -2.6037    -9.7759    -0.2457 H       
  37 H37           -2.0779    -8.6906    -1.5560 H       
  38 H38            0.2701    -7.3476    -1.0142 H       
  39 H39            0.5299    -7.1547     0.7421 H       
  40 H40            0.4056   -10.2470     3.4983 H       
  41 H41            2.6563    -9.9582     4.4473 H       
  42 H42            4.4305    -8.8942     3.1162 H       
  43 H43            3.9656    -8.1122     0.8306 H       
  44 H44            1.7235    -8.3974    -0.1397 H       
@<TRIPOS>BOND
   1    1    2 ar
   2    1   26 1
   3    1    6 ar
   4    2    3 ar
   5    2   27 1
   6    3    4 ar
   7    3    7 1
   8    4    5 ar
   9    4   28 1
  10    5    6 ar
  11    5   29 1
  12    6   30 1
  13    7    8 1
  14    8    9 1
  15    8   31 1
  16    8   32 1
  17    9   10 1
  18    9   11 2
  19   10   13 2
  20   10   33 1
  21   11   12 1
  22   12   13 1
  23   12   14 1
  24   13   17 1
  25   14   15 1
  26   14   34 1
  27   14   35 1
  28   15   16 1
  29   15   36 1
  30   15   37 1
  31   16   17 1
  32   16   18 am
  33   17   38 1
  34   17   39 1
  35   18   19 1
  36   18   20 2
  37   19   21 ar
  38   19   25 ar
  39   21   22 ar
  40   21   40 1
  41   22   23 ar
  42   22   41 1
  43   23   24 ar
  44   23   42 1
  45   24   25 ar
  46   24   43 1
  47   25   44 1

#	End of record

