#	Name: ASD01230026
#	Creating user name:	WinNT
#	Creation time:	15. 06. 2019 19:11

#	Modifying user name:	WinNT
#	Modification time:	15. 06. 2019 19:11

#	Program:	/corina/corina34_cracker 3.40 0067  02.08.2006

@<TRIPOS>MOLECULE
ASD01230026
  45   47    0    0    0
SMALL
NO_CHARGES


@<TRIPOS>ATOM
   1 C1            -0.0187     1.5258     0.0104 C.3     
   2 C2             0.0021    -0.0041     0.0020 C.3     
   3 C3            -1.4333    -0.5336     0.0129 C.3     
   4 S4             0.8511    -0.5891    -1.4904 S.o2    
   5 O5             1.0544    -1.9942    -1.4301 O.2     
   6 O6             0.3011     0.0225    -2.6492 O.2     
   7 N7             2.3749     0.0492    -1.3760 N.am    
   8 C8             4.2206    -1.4886    -0.7731 C.3     
   9 C9             3.2670    -0.3739    -0.2937 C.3     
  10 C10            4.2446     0.7584     0.0857 C.3     
  11 C11            5.5396     0.0605     0.4434 C.ar    
  12 C12            6.6395     0.5209     1.1440 C.ar    
  13 C13            7.7337    -0.3136     1.3535 C.ar    
  14 C14            7.7149    -1.6144     0.8541 C.ar    
  15 C15            6.6142    -2.0651     0.1569 C.ar    
  16 C16            5.5260    -1.2317    -0.0502 C.ar    
  17 C17            8.9146     0.1797     2.1045 C.ar    
  18 C18           10.0175    -0.6515     2.3195 C.ar    
  19 C19           11.0944    -0.1439     3.0255 C.ar    
  20 C20           11.0450     1.1575     3.4914 C.ar    
  21 N21            9.9901     1.9182     3.2730 N.ar    
  22 C22            8.9443     1.4806     2.6018 C.ar    
  23 C23           12.2148     1.7146     4.2612 C.3     
  24 H24            1.0039     1.9031     0.0027 H       
  25 H25           -0.5459     1.8868    -0.8726 H       
  26 H26           -0.5289     1.8773     0.9072 H       
  27 H27            0.5293    -0.3651     0.8851 H       
  28 H28           -1.9605    -0.1726    -0.8702 H       
  29 H29           -1.4185    -1.6235     0.0069 H       
  30 H30           -1.9435    -0.1821     0.9097 H       
  31 H31            2.6768     0.7033    -2.0256 H       
  32 H32            3.8247    -2.4674    -0.5023 H       
  33 H33            4.3663    -1.4239    -1.8514 H       
  34 H34            2.6933    -0.7012     0.5734 H       
  35 H35            4.3968     1.4265    -0.7620 H       
  36 H36            3.8652     1.3143     0.9430 H       
  37 H37            6.6497     1.5300     1.5289 H       
  38 H38            8.5603    -2.2675     1.0124 H       
  39 H39            6.5996    -3.0733    -0.2301 H       
  40 H40           10.0290    -1.6642     1.9444 H       
  41 H41           11.9636    -0.7575     3.2109 H       
  42 H42            8.1007     2.1350     2.4391 H       
  43 H43           12.9171     2.1791     3.5690 H       
  44 H44           11.8596     2.4597     4.9730 H       
  45 H45           12.7137     0.9079     4.7982 H       
@<TRIPOS>BOND
   1    1    2 1
   2    1   24 1
   3    1   25 1
   4    1   26 1
   5    2    3 1
   6    2    4 1
   7    2   27 1
   8    3   28 1
   9    3   29 1
  10    3   30 1
  11    4    5 2
  12    4    6 2
  13    4    7 am
  14    7    9 1
  15    7   31 1
  16    8    9 1
  17    8   16 1
  18    8   32 1
  19    8   33 1
  20    9   10 1
  21    9   34 1
  22   10   11 1
  23   10   35 1
  24   10   36 1
  25   11   12 ar
  26   11   16 ar
  27   12   13 ar
  28   12   37 1
  29   13   14 ar
  30   13   17 1
  31   14   15 ar
  32   14   38 1
  33   15   16 ar
  34   15   39 1
  35   17   18 ar
  36   17   22 ar
  37   18   19 ar
  38   18   40 1
  39   19   20 ar
  40   19   41 1
  41   20   21 ar
  42   20   23 1
  43   21   22 ar
  44   22   42 1
  45   23   43 1
  46   23   44 1
  47   23   45 1

#	End of record

