#	Name: ASD01230497
#	Creating user name:	WinNT
#	Creation time:	15. 06. 2019 19:14

#	Modifying user name:	WinNT
#	Modification time:	15. 06. 2019 19:14

#	Program:	/corina/corina34_cracker 3.40 0067  02.08.2006

@<TRIPOS>MOLECULE
ASD01230497
  34   36    0    0    0
SMALL
NO_CHARGES


@<TRIPOS>ATOM
   1 C1            -0.2101     1.3423     1.5452 C.ar    
   2 C2            -0.1484     0.1191     0.8629 C.ar    
   3 C3             1.0862    -0.3292     0.3940 C.ar    
   4 C4             2.2052     0.4591     0.6245 C.ar    
   5 C5             2.0649     1.6546     1.3058 C.ar    
   6 N6             0.8850     2.0575     1.7400 N.ar    
   7 N7            -1.4316     1.8092     2.0152 N.pl3   
   8 C8            -1.3751    -0.6846     0.6439 C.ar    
   9 C9            -1.6794    -1.1617    -0.6303 C.ar    
  10 C10           -2.8210    -1.9089    -0.8308 C.ar    
  11 C11           -3.6670    -2.1862     0.2347 C.ar    
  12 C12           -3.3669    -1.7121     1.5048 C.ar    
  13 C13           -2.2236    -0.9696     1.7128 C.ar    
  14 O14           -4.7911    -2.9226     0.0340 O.3     
  15 C15           -5.9416    -2.2629    -0.2615 C.ar    
  16 C16           -5.9245    -0.8893    -0.4574 C.ar    
  17 C17           -7.0955    -0.2212    -0.7583 C.ar    
  18 C18           -8.2840    -0.9198    -0.8638 C.ar    
  19 C19           -8.3039    -2.2886    -0.6690 C.ar    
  20 C20           -7.1347    -2.9625    -0.3736 C.ar    
  21 F21            3.4204     0.0620     0.1877 F       
  22 H22            1.1696    -1.2670    -0.1353 H       
  23 H23            2.9350     2.2686     1.4857 H       
  24 H24           -2.2377     1.2893     1.8707 H       
  25 H25           -1.4782     2.6550     2.4877 H       
  26 H26           -1.0219    -0.9460    -1.4595 H       
  27 H27           -3.0574    -2.2784    -1.8177 H       
  28 H28           -4.0272    -1.9288     2.3315 H       
  29 H29           -1.9882    -0.6052     2.7019 H       
  30 H30           -4.9966    -0.3431    -0.3744 H       
  31 H31           -7.0827     0.8479    -0.9109 H       
  32 H32           -9.1986    -0.3954    -1.0984 H       
  33 H33           -9.2336    -2.8319    -0.7517 H       
  34 H34           -7.1500    -4.0322    -0.2257 H       
@<TRIPOS>BOND
   1    1    2 ar
   2    1    6 ar
   3    1    7 1
   4    2    3 ar
   5    2    8 1
   6    3    4 ar
   7    3   22 1
   8    4    5 ar
   9    4   21 1
  10    5    6 ar
  11    5   23 1
  12    7   24 1
  13    7   25 1
  14    8    9 ar
  15    8   13 ar
  16    9   10 ar
  17    9   26 1
  18   10   11 ar
  19   10   27 1
  20   11   12 ar
  21   11   14 1
  22   12   13 ar
  23   12   28 1
  24   13   29 1
  25   14   15 1
  26   15   16 ar
  27   15   20 ar
  28   16   17 ar
  29   16   30 1
  30   17   18 ar
  31   17   31 1
  32   18   19 ar
  33   18   32 1
  34   19   20 ar
  35   19   33 1
  36   20   34 1

#	End of record

