#	Name: ASD03082034
#	Creating user name:	WinNT
#	Creation time:	15. 06. 2019 20:27

#	Modifying user name:	WinNT
#	Modification time:	15. 06. 2019 20:27

#	Program:	/corina/corina34_cracker 3.40 0067  02.08.2006

@<TRIPOS>MOLECULE
ASD03082034
  55   58    0    0    0
SMALL
NO_CHARGES


@<TRIPOS>ATOM
   1 C1             0.1495     1.2820    -0.2247 C.3     
   2 N2             0.0655    -0.1808    -0.1194 N.3     
   3 C3             0.6108    -0.8335    -1.3171 C.3     
   4 C4             2.1015    -0.5008    -1.4420 C.3     
   5 N5             2.2587     0.9610    -1.4043 N.am    
   6 C6             1.6212     1.7014    -0.3049 C.3     
   7 S7             3.1309     1.7524    -2.5685 S.o2    
   8 C8            -1.3161    -0.6120     0.1322 C.3     
   9 C9            -2.1796    -0.2446    -1.0470 C.2     
  10 O10           -1.7211     0.4154    -1.9492 O.2     
  11 O11            4.0312     0.7977    -3.1137 O.2     
  12 C12            2.0112     2.1755    -3.8616 C.ar    
  13 O13            3.5553     2.9781    -1.9881 O.2     
  14 C14            1.7440     3.5028    -4.1376 C.ar    
  15 C15            0.8650     3.8351    -5.1519 C.ar    
  16 C16            0.2528     2.8403    -5.8908 C.ar    
  17 C17            0.5189     1.5120    -5.6168 C.ar    
  18 C18            1.4031     1.1781    -4.6053 C.ar    
  19 F19            1.6644    -0.1199    -4.3368 F       
  20 O20           -3.4584    -0.6508    -1.0950 O.3     
  21 C21           -4.2131    -0.1919    -2.1275 C.ar    
  22 C22           -4.4531    -1.0006    -3.2264 C.ar    
  23 C23           -5.2205    -0.5323    -4.2764 C.ar    
  24 C24           -5.7529     0.7440    -4.2370 C.ar    
  25 C25           -5.5220     1.5603    -3.1479 C.ar    
  26 C26           -4.7550     1.0964    -2.0821 C.ar    
  27 C27           -4.5043     1.9692    -0.9092 C.ar    
  28 C28           -4.0413     3.2709    -1.0923 C.ar    
  29 C29           -3.8097     4.0785     0.0026 C.ar    
  30 C30           -4.0357     3.5980     1.2799 C.ar    
  31 C31           -4.4952     2.3068     1.4675 C.ar    
  32 C32           -4.7362     1.4924     0.3797 C.ar    
  33 H33           -0.3724     1.6126    -1.1228 H       
  34 H34           -0.3111     1.7369     0.6523 H       
  35 H35            0.4849    -1.9128    -1.2323 H       
  36 H36            0.0826    -0.4734    -2.1999 H       
  37 H37            2.6475    -0.9494    -0.6121 H       
  38 H38            2.4846    -0.8861    -2.3869 H       
  39 H39            1.6868     2.7721    -0.4980 H       
  40 H40            2.1211     1.4645     0.6343 H       
  41 H41           -1.3390    -1.6921     0.2768 H       
  42 H42           -1.6938    -0.1175     1.0271 H       
  43 H43            2.2215     4.2809    -3.5607 H       
  44 H44            0.6565     4.8728    -5.3667 H       
  45 H45           -0.4342     3.1011    -6.6824 H       
  46 H46            0.0401     0.7348    -6.1941 H       
  47 H47           -4.0399    -1.9977    -3.2630 H       
  48 H48           -5.4052    -1.1656    -5.1315 H       
  49 H49           -6.3510     1.1032    -5.0614 H       
  50 H50           -5.9388     2.5562    -3.1208 H       
  51 H51           -3.8638     3.6468    -2.0891 H       
  52 H52           -3.4510     5.0874    -0.1380 H       
  53 H53           -3.8525     4.2332     2.1339 H       
  54 H54           -4.6700     1.9368     2.4670 H       
  55 H55           -5.0949     0.4845     0.5273 H       
@<TRIPOS>BOND
   1    1    2 1
   2    1    6 1
   3    1   33 1
   4    1   34 1
   5    2    3 1
   6    2    8 1
   7    3    4 1
   8    3   35 1
   9    3   36 1
  10    4    5 1
  11    4   37 1
  12    4   38 1
  13    5    6 1
  14    5    7 am
  15    6   39 1
  16    6   40 1
  17    7   11 2
  18    7   12 1
  19    7   13 2
  20    8    9 1
  21    8   41 1
  22    8   42 1
  23    9   10 2
  24    9   20 1
  25   12   14 ar
  26   12   18 ar
  27   14   15 ar
  28   14   43 1
  29   15   16 ar
  30   15   44 1
  31   16   17 ar
  32   16   45 1
  33   17   18 ar
  34   17   46 1
  35   18   19 1
  36   20   21 1
  37   21   22 ar
  38   21   26 ar
  39   22   23 ar
  40   22   47 1
  41   23   24 ar
  42   23   48 1
  43   24   25 ar
  44   24   49 1
  45   25   26 ar
  46   25   50 1
  47   26   27 1
  48   27   28 ar
  49   27   32 ar
  50   28   29 ar
  51   28   51 1
  52   29   30 ar
  53   29   52 1
  54   30   31 ar
  55   30   53 1
  56   31   32 ar
  57   31   54 1
  58   32   55 1

#	End of record

