#	Name: ASD01148512
#	Creating user name:	WinNT
#	Creation time:	15. 06. 2019 19:02

#	Modifying user name:	WinNT
#	Modification time:	15. 06. 2019 19:02

#	Program:	/corina/corina34_cracker 3.40 0067  02.08.2006

@<TRIPOS>MOLECULE
ASD01148512
  56   59    0    0    0
SMALL
NO_CHARGES


@<TRIPOS>ATOM
   1 C1            -0.0180     1.4346     0.0450 C.ar    
   2 C2            -0.0166     0.0527     0.0405 C.ar    
   3 C3             1.1824    -0.6376     0.0176 C.ar    
   4 C4             2.3790     0.0561    -0.0007 C.ar    
   5 C5             2.3764     1.4385     0.0038 C.ar    
   6 C6             1.1784     2.1275     0.0267 C.ar    
   7 C7             3.6799     2.1944    -0.0162 C.3     
   8 O8             4.6902     1.4619    -0.7387 O.3     
   9 C9             3.5592     3.4841    -0.8626 C.3     
  10 C10            4.0457     3.0305    -2.2259 C.2     
  11 N11            4.6593     1.9023    -2.0819 N.2     
  12 C12            3.8513     3.7514    -3.4956 C.ar    
  13 C13            4.3743     3.1985    -4.7425 C.ar    
  14 C14            3.1650     4.9577    -3.5160 C.ar    
  15 C15            2.9679     5.6559    -4.6941 C.ar    
  16 C16            3.4480     5.1803    -5.9065 C.ar    
  17 C17            4.1729     3.9127    -5.9474 C.ar    
  18 C18            3.2226     5.9465    -7.1457 C.2     
  19 O19            3.7345     5.5827    -8.1871 O.2     
  20 N20            2.4493     7.0502    -7.1245 N.am    
  21 C21            4.6744     3.3944    -7.1480 C.ar    
  22 C22            5.0674     1.9816    -4.7702 C.ar    
  23 C23            4.1465     2.5134     1.4056 C.3     
  24 F24            4.3127     1.3222     2.1202 F       
  25 F25            5.3644     3.1999     1.3538 F       
  26 F26            3.1890     3.3098     2.0430 F       
  27 Cl27           1.1850    -2.3736     0.0125 Cl      
  28 C28            2.2254     7.8115    -8.3559 C.3     
  29 C29            1.3327     8.9897    -8.0628 C.2     
  30 N30            0.9887     9.8373    -9.0526 N.am    
  31 O31            0.9238     9.1752    -6.9361 O.2     
  32 C32            0.1209    10.9827    -8.7676 C.3     
  33 C33           -0.1130    11.7778   -10.0537 C.3     
  34 F34           -0.7242    10.9551   -11.0059 F       
  35 F35           -0.9417    12.8716    -9.7815 F       
  36 F36            1.1132    12.2338   -10.5495 F       
  37 C37            5.5382     1.5018    -5.9562 C.ar    
  38 C38            5.3448     2.2074    -7.1409 C.ar    
  39 H39           -0.9538     1.9735     0.0584 H       
  40 H40           -0.9512    -0.4884     0.0552 H       
  41 H41            3.3152    -0.4821    -0.0182 H       
  42 H42            1.1768     3.2075     0.0302 H       
  43 H43            2.5229     3.8182    -0.9130 H       
  44 H44            4.2013     4.2697    -0.4644 H       
  45 H45            2.7761     5.3598    -2.5922 H       
  46 H46            2.4285     6.5913    -4.6699 H       
  47 H47            2.0410     7.3404    -6.2938 H       
  48 H48            4.5306     3.9317    -8.0738 H       
  49 H49            5.2281     1.4270    -3.8575 H       
  50 H50            3.1807     8.1667    -8.7423 H       
  51 H51            1.7492     7.1705    -9.0979 H       
  52 H52            1.3158     9.6890    -9.9537 H       
  53 H53           -0.8344    10.6274    -8.3813 H       
  54 H54            0.5971    11.6237    -8.0257 H       
  55 H55            6.0725     0.5635    -5.9765 H       
  56 H56            5.7312     1.8085    -8.0672 H       
@<TRIPOS>BOND
   1    1    2 ar
   2    1    6 ar
   3    1   39 1
   4    2    3 ar
   5    2   40 1
   6    3    4 ar
   7    3   27 1
   8    4    5 ar
   9    4   41 1
  10    5    6 ar
  11    5    7 1
  12    6   42 1
  13    7    8 1
  14    7    9 1
  15    7   23 1
  16    8   11 1
  17    9   10 1
  18    9   43 1
  19    9   44 1
  20   10   11 2
  21   10   12 1
  22   12   13 ar
  23   12   14 ar
  24   13   22 ar
  25   13   17 ar
  26   14   15 ar
  27   14   45 1
  28   15   16 ar
  29   15   46 1
  30   16   17 ar
  31   16   18 1
  32   17   21 ar
  33   18   19 2
  34   18   20 am
  35   20   28 1
  36   20   47 1
  37   21   38 ar
  38   21   48 1
  39   22   37 ar
  40   22   49 1
  41   23   24 1
  42   23   25 1
  43   23   26 1
  44   28   29 1
  45   28   50 1
  46   28   51 1
  47   29   31 2
  48   29   30 am
  49   30   32 1
  50   30   52 1
  51   32   33 1
  52   32   53 1
  53   32   54 1
  54   33   34 1
  55   33   35 1
  56   33   36 1
  57   37   38 ar
  58   37   55 1
  59   38   56 1

#	End of record

