#	Name: ASD08170083
#	Creating user name:	WinNT
#	Creation time:	15. 06. 2019 21:17

#	Modifying user name:	WinNT
#	Modification time:	15. 06. 2019 21:17

#	Program:	/corina/corina34_cracker 3.40 0067  02.08.2006

@<TRIPOS>MOLECULE
ASD08170083
  74   75    0    0    0
SMALL
NO_CHARGES


@<TRIPOS>ATOM
   1 N1            -0.0150     1.2583     0.0090 N.2     
   2 N2             0.0021    -0.0041     0.0020 N.2     
   3 C3             1.1271     1.8769     0.0014 C.2     
   4 S4             2.3826     0.7116    -0.0169 S.3     
   5 C5             1.1681    -0.5677    -0.0121 C.2     
   6 C6             1.4387    -2.0502    -0.0217 C.3     
   7 C7             1.5173    -2.5450    -1.4674 C.3     
   8 C8             1.8707    -4.5448    -2.9228 C.3     
   9 C9             2.1412    -6.0273    -2.9323 C.2     
  10 N10            1.2495    -6.9667    -2.9293 N.2     
  11 S11            3.7292    -6.7949    -2.9574 S.3     
  12 C12            2.9664    -8.3288    -2.9528 C.2     
  13 N13            1.6794    -8.1537    -2.9388 N.2     
  14 N14            3.6171    -9.5578    -2.9674 N.am    
  15 C15            2.9010   -10.6996    -2.9618 C.2     
  16 O16            1.6891   -10.6553    -2.9442 O.2     
  17 C17            3.6061   -12.0314    -2.9776 C.3     
  18 N18            1.3017     3.2566     0.0071 N.am    
  19 C19            0.2284     4.0717     0.0222 C.2     
  20 C20            0.4176     5.5667     0.0285 C.3     
  21 O21           -0.8897     3.6019     0.0309 O.2     
  22 C22            1.7920    -4.0501    -1.4771 C.3     
  23 C23            4.0866   -12.3708    -1.5652 C.3     
  24 C24           -0.9493     6.2537     0.0458 C.3     
  25 C25           -0.7597     7.7674     0.1779 C.3     
  26 C26            2.8772   -12.5720    -0.6479 C.3     
  27 N27            2.6784   -13.0712    -3.4423 N.3     
  28 C28           -2.1268     8.4537     0.1335 C.3     
  29 N29           -2.7949     8.1349    -1.1347 N.3     
  30 C30           -3.0304     6.6911    -1.2626 C.3     
  31 C31           -1.6902     5.9522    -1.2598 C.3     
  32 C32            4.9103   -13.6611    -1.6012 C.3     
  33 C33            5.3366   -14.0282    -0.1780 C.3     
  34 N34            4.1444   -14.2106     0.6597 N.3     
  35 C35            3.3625   -12.9708     0.7477 C.3     
  36 H36            2.3840    -2.2503     0.4827 H       
  37 H37            0.6331    -2.5700     0.4969 H       
  38 H38            0.5720    -2.3449    -1.9718 H       
  39 H39            2.3230    -2.0252    -1.9860 H       
  40 H40            2.6763    -4.0251    -3.4413 H       
  41 H41            0.9253    -4.3448    -3.4272 H       
  42 H42            4.5863    -9.5933    -2.9815 H       
  43 H43            4.4623   -11.9812    -3.6504 H       
  44 H44            2.1959     3.6323     0.0002 H       
  45 H45            0.9819     5.8579     0.9145 H       
  46 H46            0.9641     5.8675    -0.8654 H       
  47 H47            2.7374    -4.2501    -0.9727 H       
  48 H48            0.9864    -4.5698    -0.9585 H       
  49 H49            4.7024   -11.5560    -1.1843 H       
  50 H50           -1.5318     5.8846     0.8899 H       
  51 H51           -0.2706     7.9915     1.1259 H       
  52 H52           -0.1434     8.1301    -0.6448 H       
  53 H53            2.3101   -11.6434    -0.5844 H       
  54 H54            2.2417   -13.3604    -1.0512 H       
  55 H55            3.1450   -13.9621    -3.5233 H       
  56 H56            1.8756   -13.1373    -2.8347 H       
  57 H57           -2.7375     8.1008     0.9645 H       
  58 H58           -1.9942     9.5327     0.2129 H       
  59 H59           -3.6564     8.6516    -1.2294 H       
  60 H60           -3.6369     6.3465    -0.4250 H       
  61 H61           -3.5541     6.4899    -2.1971 H       
  62 H62           -1.0887     6.2863    -2.1051 H       
  63 H63           -1.8660     4.8793    -1.3390 H       
  64 H64            4.3068   -14.4666    -2.0195 H       
  65 H65            5.7957   -13.5105    -2.2188 H       
  66 H66            5.9112   -14.9542    -0.1985 H       
  67 H67            5.9515   -13.2284     0.2347 H       
  68 H68            3.5769   -14.9727     0.3201 H       
  69 H69            3.9866   -12.1759     1.1560 H       
  70 H70            2.5032   -13.1287     1.3996 H       
  71 Cl71          10.9515    14.5327     6.3996 Cl      
  72 H72           10.9515    15.9027     6.3996 H       
  73 Cl73          15.9515    20.9027    11.3996 Cl      
  74 H74           15.9515    22.2727    11.3996 H       
@<TRIPOS>BOND
   1    1    2 1
   2    1    3 2
   3    2    5 2
   4    3    4 1
   5    3   18 1
   6    4    5 1
   7    5    6 1
   8    6    7 1
   9    6   36 1
  10    6   37 1
  11    7   22 1
  12    7   38 1
  13    7   39 1
  14    8    9 1
  15    8   22 1
  16    8   40 1
  17    8   41 1
  18    9   10 2
  19    9   11 1
  20   10   13 1
  21   11   12 1
  22   12   13 2
  23   12   14 1
  24   14   15 am
  25   14   42 1
  26   15   16 2
  27   15   17 1
  28   17   23 1
  29   17   27 1
  30   17   43 1
  31   18   19 am
  32   18   44 1
  33   19   20 1
  34   19   21 2
  35   20   24 1
  36   20   45 1
  37   20   46 1
  38   22   47 1
  39   22   48 1
  40   23   32 1
  41   23   26 1
  42   23   49 1
  43   24   25 1
  44   24   31 1
  45   24   50 1
  46   25   28 1
  47   25   51 1
  48   25   52 1
  49   26   35 1
  50   26   53 1
  51   26   54 1
  52   27   55 1
  53   27   56 1
  54   28   29 1
  55   28   57 1
  56   28   58 1
  57   29   30 1
  58   29   59 1
  59   30   31 1
  60   30   60 1
  61   30   61 1
  62   31   62 1
  63   31   63 1
  64   32   33 1
  65   32   64 1
  66   32   65 1
  67   33   34 1
  68   33   66 1
  69   33   67 1
  70   34   35 1
  71   34   68 1
  72   35   69 1
  73   35   70 1
  74   71   72 1
  75   73   74 1

#	End of record

