#	Name: ASD01200511
#	Creating user name:	WinNT
#	Creation time:	15. 06. 2019 19:09

#	Modifying user name:	WinNT
#	Modification time:	15. 06. 2019 19:09

#	Program:	/corina/corina34_cracker 3.40 0067  02.08.2006

@<TRIPOS>MOLECULE
ASD01200511
  27   28    0    0    0
SMALL
NO_CHARGES


@<TRIPOS>ATOM
   1 N1            -0.0039     1.2902    -0.2821 N.ar    
   2 C2             0.0059    -0.0185    -0.1277 C.ar    
   3 C3             1.1884    -0.7373    -0.2492 C.ar    
   4 C4             2.3673    -0.0545    -0.5376 C.ar    
   5 C5             2.3102     1.3211    -0.6921 C.ar    
   6 C6             1.0951     1.9660    -0.5557 C.ar    
   7 N7             1.1949    -2.1261    -0.0838 N.am    
   8 C8             0.0858    -2.7585     0.3479 C.2     
   9 C9             2.4074    -2.8933    -0.3796 C.3     
  10 O10           -0.9158    -2.1192     0.6112 O.2     
  11 C11            0.0858    -4.2161     0.5001 C.2     
  12 C12           -1.0143    -4.9870     0.7517 C.2     
  13 C13           -0.7289    -6.3287     0.8416 C.2     
  14 C14            0.5593    -6.6479     0.6699 C.2     
  15 S15            1.5000    -5.2541     0.3808 S.3     
  16 N16            1.0965    -8.0262     0.7240 N.pl3   
  17 O17            0.3484    -8.9634     0.9371 O.2     
  18 O18            2.2866    -8.2230     0.5555 O.2     
  19 H19           -0.9145    -0.5374     0.0957 H       
  20 H20            3.3032    -0.5841    -0.6380 H       
  21 H21            3.2048     1.8833    -0.9159 H       
  22 H22            1.0451     3.0382    -0.6751 H       
  23 H23            2.9613    -3.0675     0.5428 H       
  24 H24            2.1326    -3.8497    -0.8246 H       
  25 H25            3.0303    -2.3336    -1.0773 H       
  26 H26           -2.0088    -4.5823     0.8689 H       
  27 H27           -1.4887    -7.0710     1.0368 H       
@<TRIPOS>BOND
   1    1    2 ar
   2    1    6 ar
   3    2    3 ar
   4    2   19 1
   5    3    4 ar
   6    3    7 1
   7    4    5 ar
   8    4   20 1
   9    5    6 ar
  10    5   21 1
  11    6   22 1
  12    7    8 am
  13    7    9 1
  14    8   10 2
  15    8   11 1
  16    9   23 1
  17    9   24 1
  18    9   25 1
  19   11   12 2
  20   11   15 1
  21   12   13 1
  22   12   26 1
  23   13   14 2
  24   13   27 1
  25   14   15 1
  26   14   16 1
  27   16   17 2
  28   16   18 2

#	End of record

