#	Name: ASD03731876
#	Creating user name:	WinNT
#	Creation time:	15. 06. 2019 20:46

#	Modifying user name:	WinNT
#	Modification time:	15. 06. 2019 20:46

#	Program:	/corina/corina34_cracker 3.40 0067  02.08.2006

@<TRIPOS>MOLECULE
ASD03731876
  32   33    0    0    0
SMALL
NO_CHARGES


@<TRIPOS>ATOM
   1 C1            -0.0273     1.4671    -0.1576 C.2     
   2 C2            -0.0049    -0.0053    -0.1213 C.ar    
   3 C3             0.0612    -0.6771     1.1061 C.ar    
   4 C4             0.0815    -2.0567     1.1340 C.ar    
   5 C5             0.0369    -2.7777    -0.0521 C.ar    
   6 C6            -0.0285    -2.1136    -1.2737 C.ar    
   7 C7            -0.0554    -0.7374    -1.3120 C.ar    
   8 O8             0.0116     2.1011     0.8784 O.2     
   9 O9            -0.0854     2.1112    -1.3400 O.3     
  10 Cl10          -0.0834    -3.0224    -2.7518 Cl      
  11 O11            0.0574    -4.1342    -0.0202 O.3     
  12 C12            1.2596    -4.7572    -0.1396 C.ar    
  13 C13            1.3376    -6.1395    -0.0479 C.ar    
  14 C14            2.5598    -6.7712    -0.1699 C.ar    
  15 C15            3.7071    -6.0256    -0.3832 C.ar    
  16 C16            3.6308    -4.6463    -0.4749 C.ar    
  17 C17            2.4089    -4.0121    -0.3590 C.ar    
  18 F18            4.9020    -6.6447    -0.5015 F       
  19 C19            0.0894    -6.9512     0.1852 C.3     
  20 C20           -0.5980    -7.2256    -1.1538 C.3     
  21 F21            0.1056     0.0241     2.2600 F       
  22 H22            0.1325    -2.5763     2.0794 H       
  23 H23           -0.1106    -0.2238    -2.2604 H       
  24 H24           -0.0980     3.0777    -1.3132 H       
  25 H25            2.6208    -7.8471    -0.0986 H       
  26 H26            4.5265    -4.0661    -0.6410 H       
  27 H27            2.3491    -2.9364    -0.4351 H       
  28 H28            0.3541    -7.8968     0.6583 H       
  29 H29           -0.5883    -6.3971     0.8347 H       
  30 H30           -0.8626    -6.2800    -1.6269 H       
  31 H31            0.0797    -7.7797    -1.8033 H       
  32 H32           -1.5007    -7.8127    -0.9852 H       
@<TRIPOS>BOND
   1    1    2 1
   2    1    8 2
   3    1    9 1
   4    2    3 ar
   5    2    7 ar
   6    3    4 ar
   7    3   21 1
   8    4    5 ar
   9    4   22 1
  10    5    6 ar
  11    5   11 1
  12    6    7 ar
  13    6   10 1
  14    7   23 1
  15    9   24 1
  16   11   12 1
  17   12   13 ar
  18   12   17 ar
  19   13   14 ar
  20   13   19 1
  21   14   15 ar
  22   14   25 1
  23   15   16 ar
  24   15   18 1
  25   16   17 ar
  26   16   26 1
  27   17   27 1
  28   19   20 1
  29   19   28 1
  30   19   29 1
  31   20   30 1
  32   20   31 1
  33   20   32 1

#	End of record

