#	Name: ASD05130091
#	Creating user name:	WinNT
#	Creation time:	15. 06. 2019 20:56

#	Modifying user name:	WinNT
#	Modification time:	15. 06. 2019 20:56

#	Program:	/corina/corina34_cracker 3.40 0067  02.08.2006

@<TRIPOS>MOLECULE
ASD05130091
  56   59    0    0    0
SMALL
NO_CHARGES


@<TRIPOS>ATOM
   1 C1            -2.2696     1.4527     0.1158 C.2     
   2 C2            -2.2381    -0.0540     0.1204 C.3     
   3 O3            -3.3323     2.0370     0.1250 O.2     
   4 N4            -1.1168     2.1508     0.1069 N.am    
   5 N5             1.1505     6.3887     0.0797 N.am    
   6 C6             1.1007     7.7309    -0.0293 C.2     
   7 C7            -0.1807     8.4065    -0.2479 C.2     
   8 C8            -1.3270     7.6657    -0.3407 C.2     
   9 C9            -1.2481     6.2574    -0.2228 C.ar    
  10 C10           -2.3958     5.4598    -0.3119 C.ar    
  11 N11           -2.3047     4.1526    -0.2007 N.ar    
  12 C12           -1.1441     3.5380    -0.0025 C.ar    
  13 C13            0.0408     4.2510     0.0978 C.ar    
  14 C14            0.0022     5.6369    -0.0125 C.ar    
  15 O15            2.1249     8.3849     0.0546 O.2     
  16 C16            2.4389     5.7244     0.2921 C.3     
  17 C17            2.7084     5.6024     1.7933 C.3     
  18 C18           -0.2348     9.8824    -0.3672 C.ar    
  19 C19            0.1999    10.5061    -1.5378 C.ar    
  20 C20            0.1487    11.8821    -1.6471 C.ar    
  21 C21           -0.3326    12.6456    -0.5979 C.ar    
  22 C22           -0.7678    12.0311     0.5721 C.ar    
  23 C23           -0.7253    10.6510     0.6869 C.ar    
  24 F24           -0.3796    13.9912    -0.7099 F       
  25 N25           -1.2540    12.8077     1.6324 N.am    
  26 C26           -2.2597    12.3447     2.4009 C.2     
  27 O27           -2.6898    11.2207     2.2272 O.2     
  28 N28           -2.7887    13.1276     3.3620 N.am    
  29 C29           -3.7667    12.6156     4.2219 C.ar    
  30 C30           -3.8085    13.0235     5.5484 C.ar    
  31 C31           -4.7761    12.5160     6.3970 C.ar    
  32 C32           -5.7023    11.6015     5.9244 C.ar    
  33 C33           -5.6620    11.1931     4.6019 C.ar    
  34 C34           -4.7000    11.7032     3.7484 C.ar    
  35 F35           -6.5661    10.3001     4.1433 F       
  36 F36           -4.8172    12.9126     7.6878 F       
  37 Cl37           0.8055     9.5526    -2.8561 Cl      
  38 H38           -3.2579    -0.4387     0.1324 H       
  39 H39           -1.7262    -0.4095    -0.7738 H       
  40 H40           -1.7075    -0.4036     1.0060 H       
  41 H41           -0.2680     1.6864     0.1769 H       
  42 H42           -2.2794     8.1490    -0.5014 H       
  43 H43           -3.3595     5.9201    -0.4723 H       
  44 H44            0.9778     3.7389     0.2594 H       
  45 H45            2.4131     4.7304    -0.1543 H       
  46 H46            3.2312     6.3110    -0.1728 H       
  47 H47            3.6669     5.1081     1.9513 H       
  48 H48            2.7342     6.5964     2.2397 H       
  49 H49            1.9160     5.0158     2.2582 H       
  50 H50            0.4854    12.3633    -2.5534 H       
  51 H51           -1.0672    10.1723     1.5926 H       
  52 H52           -0.8667    13.6784     1.8132 H       
  53 H53           -2.4916    14.0460     3.4576 H       
  54 H54           -3.0859    13.7362     5.9176 H       
  55 H55           -6.4568    11.2061     6.5882 H       
  56 H56           -4.6722    11.3884     2.7156 H       
@<TRIPOS>BOND
   1    1    2 1
   2    1    3 2
   3    1    4 am
   4    2   38 1
   5    2   39 1
   6    2   40 1
   7    4   12 1
   8    4   41 1
   9    5    6 am
  10    5   14 1
  11    5   16 1
  12    6    7 1
  13    6   15 2
  14    7    8 2
  15    7   18 1
  16    8    9 1
  17    8   42 1
  18    9   10 ar
  19    9   14 ar
  20   10   11 ar
  21   10   43 1
  22   11   12 ar
  23   12   13 ar
  24   13   14 ar
  25   13   44 1
  26   16   17 1
  27   16   45 1
  28   16   46 1
  29   17   47 1
  30   17   48 1
  31   17   49 1
  32   18   19 ar
  33   18   23 ar
  34   19   20 ar
  35   19   37 1
  36   20   21 ar
  37   20   50 1
  38   21   22 ar
  39   21   24 1
  40   22   23 ar
  41   22   25 1
  42   23   51 1
  43   25   26 am
  44   25   52 1
  45   26   27 2
  46   26   28 am
  47   28   29 1
  48   28   53 1
  49   29   30 ar
  50   29   34 ar
  51   30   31 ar
  52   30   54 1
  53   31   32 ar
  54   31   36 1
  55   32   33 ar
  56   32   55 1
  57   33   34 ar
  58   33   35 1
  59   34   56 1

#	End of record

