#	Name: ASD04882164
#	Creating user name:	WinNT
#	Creation time:	15. 06. 2019 20:54

#	Modifying user name:	WinNT
#	Modification time:	15. 06. 2019 20:54

#	Program:	/corina/corina34_cracker 3.40 0067  02.08.2006

@<TRIPOS>MOLECULE
ASD04882164
  81   85    0    0    0
SMALL
NO_CHARGES


@<TRIPOS>ATOM
   1 C1            -2.0570     1.8325     1.5783 C.3     
   2 S2            -0.7626     0.8317     0.7950 S.o2    
   3 N3            -1.5869    -0.3810     0.0255 N.am    
   4 C4            -2.4892    -0.0730    -1.0002 C.ar    
   5 C5            -3.8503     0.0671    -0.7155 C.ar    
   6 C6            -4.7471     0.3728    -1.7323 C.ar    
   7 C7            -4.2982     0.5388    -3.0240 C.ar    
   8 C8            -2.9386     0.4007    -3.3156 C.ar    
   9 C9            -2.0338     0.0983    -2.2936 C.ar    
  10 N10           -4.3090    -0.1005     0.5896 N.3     
  11 C11           -4.1406    -1.4916     1.0325 C.3     
  12 C12           -5.7109     0.3226     0.7136 C.3     
  13 C13           -6.1513     0.1982     2.1740 C.3     
  14 N14           -5.9829    -1.1929     2.6169 N.3     
  15 C15           -4.5810    -1.6160     2.4930 C.3     
  16 C16           -6.4426    -1.3609     3.9251 C.ar    
  17 C17           -5.8733    -0.6327     4.9618 C.ar    
  18 C18           -7.4742    -2.2525     4.1914 C.ar    
  19 C19           -7.9263    -2.4161     5.4859 C.ar    
  20 C20           -7.3536    -1.6933     6.5166 C.ar    
  21 C21           -6.3303    -0.8013     6.2543 C.ar    
  22 C22           -2.4580     0.5780    -4.6991 C.2     
  23 N23           -3.3306     0.8735    -5.6829 N.am    
  24 O24           -1.2748     0.4576    -4.9519 O.2     
  25 O25           -0.1410     1.5558    -0.2578 O.2     
  26 C26           -2.8534     1.0496    -7.0568 C.3     
  27 C27           -4.0369     1.3760    -7.9698 C.3     
  28 C28           -3.5385     1.5599    -9.4046 C.3     
  29 N29           -4.6717     1.8725   -10.2789 N.am    
  30 C30           -5.1071     3.1170   -10.5407 C.2     
  31 C31           -6.2983     3.0664   -11.4718 C.3     
  32 C32           -6.7731     1.5965   -11.4006 C.3     
  33 C33           -5.4736     0.8673   -10.9865 C.3     
  34 C34           -8.0995    -3.0398     3.0688 C.3     
  35 O35            0.0118     0.1596     1.7788 O.2     
  36 C36           -1.4238     2.9822     2.3189 C.ar    
  37 C37           -1.2074     4.1851     1.6731 C.ar    
  38 C38           -1.0647     2.8356     3.6457 C.ar    
  39 C39           -0.4839     3.8902     4.3251 C.ar    
  40 C40           -0.2619     5.0911     3.6775 C.ar    
  41 C41           -0.6266     5.2396     2.3525 C.ar    
  42 O42           -4.6165     4.1326   -10.0949 O.2     
  43 H43           -2.7298     2.2197     0.8131 H       
  44 H44           -2.6198     1.2152     2.2784 H       
  45 H45           -1.4447    -1.3047     0.2852 H       
  46 H46           -5.7984     0.4800    -1.5092 H       
  47 H47           -4.9977     0.7757    -3.8121 H       
  48 H48           -0.9824    -0.0091    -2.5158 H       
  49 H49           -4.7509    -2.1473     0.4115 H       
  50 H50           -3.0925    -1.7773     0.9431 H       
  51 H51           -5.8076     1.3595     0.3917 H       
  52 H52           -6.3390    -0.3125     0.0889 H       
  53 H53           -5.5410     0.8539     2.7950 H       
  54 H54           -7.1993     0.4839     2.2634 H       
  55 H55           -4.4843    -2.6529     2.8149 H       
  56 H56           -3.9529    -0.9809     3.1176 H       
  57 H57           -5.0740     0.0643     4.7576 H       
  58 H58           -8.7282    -3.1091     5.6936 H       
  59 H59           -7.7095    -1.8227     7.5280 H       
  60 H60           -5.8852    -0.2384     7.0615 H       
  61 H61           -4.2745     0.9696    -5.4813 H       
  62 H62           -2.1332     1.8671    -7.0892 H       
  63 H63           -2.3754     0.1306    -7.3960 H       
  64 H64           -4.7571     0.5585    -7.9373 H       
  65 H65           -4.5149     2.2950    -7.6306 H       
  66 H66           -2.8183     2.3775    -9.4371 H       
  67 H67           -3.0605     0.6409    -9.7439 H       
  68 H68           -7.0832     3.7380   -11.1240 H       
  69 H69           -5.9991     3.3218   -12.4883 H       
  70 H70           -7.5510     1.4739   -10.6470 H       
  71 H71           -7.1180     1.2503   -12.3749 H       
  72 H72           -4.9452     0.5076   -11.8693 H       
  73 H73           -5.7034     0.0367   -10.3191 H       
  74 H74           -7.5639    -3.9806     2.9426 H       
  75 H75           -9.1433    -3.2450     3.3064 H       
  76 H76           -8.0436    -2.4631     2.1456 H       
  77 H77           -1.4918     4.3009     0.6377 H       
  78 H78           -1.2381     1.8973     4.1517 H       
  79 H79           -0.2040     3.7759     5.3619 H       
  80 H80            0.1915     5.9151     4.2084 H       
  81 H81           -0.4532     6.1779     1.8465 H       
@<TRIPOS>BOND
   1    1    2 1
   2    1   36 1
   3    1   43 1
   4    1   44 1
   5    2    3 am
   6    2   25 2
   7    2   35 2
   8    3    4 1
   9    3   45 1
  10    4    5 ar
  11    4    9 ar
  12    5    6 ar
  13    5   10 1
  14    6    7 ar
  15    6   46 1
  16    7    8 ar
  17    7   47 1
  18    8    9 ar
  19    8   22 1
  20    9   48 1
  21   10   11 1
  22   10   12 1
  23   11   15 1
  24   11   49 1
  25   11   50 1
  26   12   13 1
  27   12   51 1
  28   12   52 1
  29   13   14 1
  30   13   53 1
  31   13   54 1
  32   14   15 1
  33   14   16 1
  34   15   55 1
  35   15   56 1
  36   16   17 ar
  37   16   18 ar
  38   17   21 ar
  39   17   57 1
  40   18   19 ar
  41   18   34 1
  42   19   20 ar
  43   19   58 1
  44   20   21 ar
  45   20   59 1
  46   21   60 1
  47   22   23 am
  48   22   24 2
  49   23   26 1
  50   23   61 1
  51   26   27 1
  52   26   62 1
  53   26   63 1
  54   27   28 1
  55   27   64 1
  56   27   65 1
  57   28   29 1
  58   28   66 1
  59   28   67 1
  60   29   30 am
  61   29   33 1
  62   30   31 1
  63   30   42 2
  64   31   32 1
  65   31   68 1
  66   31   69 1
  67   32   33 1
  68   32   70 1
  69   32   71 1
  70   33   72 1
  71   33   73 1
  72   34   74 1
  73   34   75 1
  74   34   76 1
  75   36   37 ar
  76   36   38 ar
  77   37   41 ar
  78   37   77 1
  79   38   39 ar
  80   38   78 1
  81   39   40 ar
  82   39   79 1
  83   40   41 ar
  84   40   80 1
  85   41   81 1

#	End of record

