#	Name: ASD01230009
#	Creating user name:	WinNT
#	Creation time:	15. 06. 2019 19:11

#	Modifying user name:	WinNT
#	Modification time:	15. 06. 2019 19:11

#	Program:	/corina/corina34_cracker 3.40 0067  02.08.2006

@<TRIPOS>MOLECULE
ASD01230009
  51   53    0    0    0
SMALL
NO_CHARGES


@<TRIPOS>ATOM
   1 C1            -0.4984     1.2227     0.0924 C.3     
   2 C2            -0.3070    -0.2937     0.0219 C.3     
   3 C3             0.4399    -0.7719     1.2686 C.3     
   4 S4            -1.9276    -1.1045    -0.0602 S.o2    
   5 O5            -1.7776    -2.4936    -0.3195 O.2     
   6 O6            -2.7705    -0.6414     0.9859 O.2     
   7 N7            -2.6206    -0.5041    -1.4392 N.am    
   8 C8            -2.7387    -2.0010    -3.4092 C.3     
   9 C9            -2.0288    -0.8018    -2.7459 C.3     
  10 C10           -2.3040     0.3410    -3.7459 C.3     
  11 C11           -2.4959    -0.3409    -5.0839 C.ar    
  12 C12           -2.4555     0.1773    -6.3654 C.ar    
  13 C13           -2.6660    -0.6540    -7.4621 C.ar    
  14 C14           -2.9175    -2.0102    -7.2616 C.ar    
  15 C15           -2.9558    -2.5181    -5.9805 C.ar    
  16 C16           -2.7459    -1.6877    -4.8905 C.ar    
  17 C17           -2.6235    -0.0991    -8.8372 C.ar    
  18 C18           -2.8346    -0.9338    -9.9335 C.ar    
  19 C19           -2.7951    -0.4160   -11.2105 C.ar    
  20 C20           -2.5449     0.9375   -11.4054 C.ar    
  21 C21           -2.3340     1.7716   -10.3134 C.ar    
  22 C22           -2.3780     1.2589    -9.0345 C.ar    
  23 N23           -2.5049     1.4596   -12.6991 N.am    
  24 S24           -3.9113     1.6940   -13.5412 S.o2    
  25 O25           -3.4895     2.2435   -14.7819 O.2     
  26 O26           -4.5685     0.4354   -13.4831 O.2     
  27 C27           -4.8181     2.9309   -12.5726 C.3     
  28 H28            0.4754     1.7099     0.1417 H       
  29 H29           -1.0305     1.5634    -0.7958 H       
  30 H30           -1.0764     1.4750     0.9814 H       
  31 H31            0.2710    -0.5460    -0.8671 H       
  32 H32           -0.1381    -0.5196     2.1576 H       
  33 H33            0.5763    -1.8522     1.2184 H       
  34 H34            1.4137    -0.2847     1.3180 H       
  35 H35           -3.4184     0.0447    -1.3818 H       
  36 H36           -2.1848    -2.9204    -3.2198 H       
  37 H37           -3.7592    -2.0897    -3.0365 H       
  38 H38           -0.9592    -0.9888    -2.6513 H       
  39 H39           -3.2078     0.8811    -3.4637 H       
  40 H40           -1.4532     1.0211    -3.7866 H       
  41 H41           -2.2606     1.2289    -6.5157 H       
  42 H42           -3.0821    -2.6613    -8.1074 H       
  43 H43           -3.1506    -3.5690    -5.8252 H       
  44 H44           -3.0287    -1.9855    -9.7826 H       
  45 H45           -2.9583    -1.0624   -12.0602 H       
  46 H46           -2.1395     2.8228   -10.4670 H       
  47 H47           -2.2185     1.9080    -8.1863 H       
  48 H48           -1.6532     1.6851   -13.1049 H       
  49 H49           -4.1912     3.8110   -12.4293 H       
  50 H50           -5.7263     3.2145   -13.1045 H       
  51 H51           -5.0817     2.5106   -11.6021 H       
@<TRIPOS>BOND
   1    1    2 1
   2    1   28 1
   3    1   29 1
   4    1   30 1
   5    2    3 1
   6    2    4 1
   7    2   31 1
   8    3   32 1
   9    3   33 1
  10    3   34 1
  11    4    5 2
  12    4    6 2
  13    4    7 am
  14    7    9 1
  15    7   35 1
  16    8    9 1
  17    8   16 1
  18    8   36 1
  19    8   37 1
  20    9   10 1
  21    9   38 1
  22   10   11 1
  23   10   39 1
  24   10   40 1
  25   11   12 ar
  26   11   16 ar
  27   12   13 ar
  28   12   41 1
  29   13   14 ar
  30   13   17 1
  31   14   15 ar
  32   14   42 1
  33   15   16 ar
  34   15   43 1
  35   17   18 ar
  36   17   22 ar
  37   18   19 ar
  38   18   44 1
  39   19   20 ar
  40   19   45 1
  41   20   21 ar
  42   20   23 1
  43   21   22 ar
  44   21   46 1
  45   22   47 1
  46   23   24 am
  47   23   48 1
  48   24   25 2
  49   24   26 2
  50   24   27 1
  51   27   49 1
  52   27   50 1
  53   27   51 1

#	End of record

