#	Name: ASD02198805
#	Creating user name:	WinNT
#	Creation time:	15. 06. 2019 20:20

#	Modifying user name:	WinNT
#	Modification time:	15. 06. 2019 20:20

#	Program:	/corina/corina34_cracker 3.40 0067  02.08.2006

@<TRIPOS>MOLECULE
ASD02198805
  49   53    0    0    0
SMALL
NO_CHARGES


@<TRIPOS>ATOM
   1 F1             2.2508    -1.7105     2.4732 F       
   2 C2            -0.0436     1.5037    -0.1141 C.2     
   3 C3            -0.0739     0.1641     0.0985 C.2     
   4 N4             1.0701    -0.5380     0.2613 N.pl3   
   5 N5             2.2349    -0.0037     0.2274 N.2     
   6 C6             2.4070     1.2855     0.0286 C.2     
   7 C7             1.2215     2.1372    -0.1599 C.2     
   8 C8             0.9780    -1.9170     0.4780 C.ar    
   9 C9             1.5784    -2.4876     1.5963 C.ar    
  10 C10            1.4864    -3.8502     1.8088 C.ar    
  11 C11            0.7955    -4.6481     0.9067 C.ar    
  12 C12            0.1965    -4.0777    -0.2094 C.ar    
  13 C13            0.2824    -2.7168    -0.4202 C.ar    
  14 C14            3.7642     1.8673    -0.0038 C.2     
  15 N15            4.3067     2.6066    -1.0171 N.pl3   
  16 N16            5.6088     2.9575    -0.6392 N.2     
  17 C17            5.8521     2.4582     0.5463 C.2     
  18 C18            4.7195     1.7718     0.9842 C.2     
  19 C19            3.6740     2.9515    -2.2181 C.ar    
  20 C20            2.9110     2.0106    -2.8972 C.ar    
  21 C21            2.2865     2.3510    -4.0817 C.ar    
  22 C22            2.4195     3.6273    -4.5939 C.ar    
  23 C23            3.1808     4.5719    -3.9195 C.ar    
  24 C24            3.8041     4.2358    -2.7281 C.ar    
  25 O25            1.3250     3.3401    -0.3483 O.2     
  26 N26            0.7027    -6.0300     1.1221 N.pl3   
  27 N27            1.2551    -6.7355     2.1989 N.2     
  28 C28            0.9571    -8.0018     2.0545 C.2     
  29 C29            0.2061    -8.1441     0.8825 C.2     
  30 C30            0.0591    -6.9174     0.3303 C.2     
  31 O31            3.3108     5.8269    -4.4244 O.3     
  32 C32            2.6366     6.1048    -5.6533 C.3     
  33 F33            1.2618     5.9074    -5.4860 F       
  34 F34            2.8752     7.4318    -6.0264 F       
  35 F35            3.1128     5.2471    -6.6508 F       
  36 H36           -0.9547     2.0677    -0.2486 H       
  37 H37           -1.0239    -0.3480     0.1387 H       
  38 H38            1.9522    -4.2942     2.6762 H       
  39 H39           -0.3404    -4.6994    -0.9106 H       
  40 H40           -0.1840    -2.2744    -1.2880 H       
  41 H41            6.7755     2.5642     1.0963 H       
  42 H42            4.6133     1.2526     1.9253 H       
  43 H43            2.8061     1.0120    -2.4994 H       
  44 H44            1.6935     1.6179    -4.6085 H       
  45 H45            1.9307     3.8903    -5.5204 H       
  46 H46            4.3966     4.9695    -2.2018 H       
  47 H47            1.2421    -8.7995     2.7244 H       
  48 H48           -0.1895    -9.0692     0.4898 H       
  49 H49           -0.4717    -6.6890    -0.5821 H       
@<TRIPOS>BOND
   1    1    9 1
   2    2    3 2
   3    2    7 1
   4    2   36 1
   5    3    4 1
   6    3   37 1
   7    4    5 1
   8    4    8 1
   9    5    6 2
  10    6    7 1
  11    6   14 1
  12    7   25 2
  13    8    9 ar
  14    8   13 ar
  15    9   10 ar
  16   10   11 ar
  17   10   38 1
  18   11   12 ar
  19   11   26 1
  20   12   13 ar
  21   12   39 1
  22   13   40 1
  23   14   15 1
  24   14   18 2
  25   15   16 1
  26   15   19 1
  27   16   17 2
  28   17   18 1
  29   17   41 1
  30   18   42 1
  31   19   20 ar
  32   19   24 ar
  33   20   21 ar
  34   20   43 1
  35   21   22 ar
  36   21   44 1
  37   22   23 ar
  38   22   45 1
  39   23   24 ar
  40   23   31 1
  41   24   46 1
  42   26   27 1
  43   26   30 1
  44   27   28 2
  45   28   29 1
  46   28   47 1
  47   29   30 2
  48   29   48 1
  49   30   49 1
  50   31   32 1
  51   32   33 1
  52   32   34 1
  53   32   35 1

#	End of record

