#	Name: ASD00600008
#	Creating user name:	WinNT
#	Creation time:	15. 06. 2019 18:36

#	Modifying user name:	WinNT
#	Modification time:	15. 06. 2019 18:36

#	Program:	/corina/corina34_cracker 3.40 0067  02.08.2006

@<TRIPOS>MOLECULE
ASD00600008
  78   82    0    0    0
SMALL
NO_CHARGES


@<TRIPOS>ATOM
   1 C1             0.2402    -3.3275    -1.4503 C.3     
   2 C2             0.1122    -2.0738    -0.6238 C.2     
   3 N3             0.0057    -2.0114     0.6755 N.2     
   4 N4            -0.0839    -0.7827     1.0440 N.2     
   5 C5            -0.0386    -0.0053    -0.0035 C.2     
   6 N6             0.0922    -0.8023    -1.0914 N.pl3   
   7 C7             0.1893    -0.3759    -2.4896 C.3     
   8 C8             1.4173     0.5221    -2.6643 C.3     
   9 C9             1.4252     1.0814    -4.0960 C.3     
  10 C10            1.1685    -0.0956    -5.0649 C.3     
  11 C11           -0.3670    -0.1728    -5.1950 C.3     
  12 C12           -0.8985     0.9647    -4.2928 C.3     
  13 C13           -1.0753     0.3969    -2.8754 C.3     
  14 N14            0.2210     1.9422    -4.2395 N.3     
  15 C15            0.2857     2.7364    -5.4737 C.3     
  16 C16           -1.0645     3.4144    -5.7152 C.3     
  17 C17           -0.9972     4.2415    -7.0006 C.3     
  18 N18           -0.0392     5.3363    -6.8272 N.am    
  19 C19            0.5682     5.8768    -7.9021 C.2     
  20 O20            0.3217     5.4569    -9.0128 O.2     
  21 C21            1.5536     7.0029    -7.7237 C.3     
  22 C22            2.0932     7.4297    -9.0903 C.3     
  23 C23            3.0936     8.5731    -8.9092 C.3     
  24 C24            2.3959     9.7605    -8.2429 C.3     
  25 F25            3.3106    10.8060    -8.0774 F       
  26 F26            1.3365    10.1911    -9.0488 F       
  27 C27            1.8563     9.3338    -6.8763 C.3     
  28 C28            0.8558     8.1904    -7.0574 C.3     
  29 C29           -2.3596     4.8095    -7.3044 C.ar    
  30 C30           -3.1680     4.2007    -8.2460 C.ar    
  31 C31           -4.4176     4.7217    -8.5247 C.ar    
  32 C32           -4.8591     5.8513    -7.8614 C.ar    
  33 C33           -4.0511     6.4596    -6.9191 C.ar    
  34 C34           -2.8031     5.9361    -6.6373 C.ar    
  35 C35           -0.1123     1.4999    -0.0026 C.3     
  36 C36           -1.4379     1.9451     0.6182 C.3     
  37 C37            1.0498     2.0670     0.8152 C.3     
  38 H38           -0.7442    -3.6285    -1.8087 H       
  39 H39            0.8939    -3.1364    -2.3014 H       
  40 H40            0.6634    -4.1242    -0.8387 H       
  41 H41            0.2871    -1.2525    -3.1301 H       
  42 H42            1.3722     1.3452    -1.9511 H       
  43 H43            2.3228    -0.0606    -2.4950 H       
  44 H44            2.3507     1.6097    -4.3253 H       
  45 H45            1.6217     0.1062    -6.0355 H       
  46 H46            1.5608    -1.0230    -4.6476 H       
  47 H47           -0.6687    -0.0088    -6.2295 H       
  48 H48           -0.7296    -1.1380    -4.8417 H       
  49 H49           -1.8203     1.4002    -4.6786 H       
  50 H50           -1.9337    -0.2745    -2.8556 H       
  51 H51           -1.2326     1.2143    -2.1717 H       
  52 H52            1.0615     3.4959    -5.3768 H       
  53 H53            0.5197     2.0831    -6.3143 H       
  54 H54           -1.8403     2.6549    -5.8121 H       
  55 H55           -1.2985     4.0676    -4.8746 H       
  56 H56           -0.6765     3.6054    -7.8256 H       
  57 H57            0.1579     5.6721    -5.9388 H       
  58 H58            2.3790     6.6675    -7.0958 H       
  59 H59            2.5903     6.5837    -9.5650 H       
  60 H60            1.2678     7.7652    -9.7182 H       
  61 H61            3.9190     8.2376    -8.2813 H       
  62 H62            3.4780     8.8771    -9.8828 H       
  63 H63            2.6817     8.9983    -6.2484 H       
  64 H64            1.3592    10.1797    -6.4016 H       
  65 H65            0.0304     8.5259    -7.6853 H       
  66 H66            0.4714     7.8864    -6.0838 H       
  67 H67           -2.8230     3.3181    -8.7642 H       
  68 H68           -5.0489     4.2465    -9.2609 H       
  69 H69           -5.8352     6.2588    -8.0797 H       
  70 H70           -4.3959     7.3424    -6.4012 H       
  71 H71           -2.1733     6.4091    -5.8984 H       
  72 H72           -0.0493     1.8673    -1.0268 H       
  73 H73           -1.5010     1.5777     1.6425 H       
  74 H74           -1.4913     3.0338     0.6189 H       
  75 H75           -2.2659     1.5411     0.0356 H       
  76 H76            0.9964     3.1556     0.8158 H       
  77 H77            0.9867     1.6995     1.8394 H       
  78 H78            1.9942     1.7497     0.3729 H       
@<TRIPOS>BOND
   1    1    2 1
   2    1   38 1
   3    1   39 1
   4    1   40 1
   5    2    3 2
   6    2    6 1
   7    3    4 1
   8    4    5 2
   9    5    6 1
  10    5   35 1
  11    6    7 1
  12    7    8 1
  13    7   13 1
  14    7   41 1
  15    8    9 1
  16    8   42 1
  17    8   43 1
  18    9   10 1
  19    9   14 1
  20    9   44 1
  21   10   11 1
  22   10   45 1
  23   10   46 1
  24   11   12 1
  25   11   47 1
  26   11   48 1
  27   12   13 1
  28   12   14 1
  29   12   49 1
  30   13   50 1
  31   13   51 1
  32   14   15 1
  33   15   16 1
  34   15   52 1
  35   15   53 1
  36   16   17 1
  37   16   54 1
  38   16   55 1
  39   17   18 1
  40   17   29 1
  41   17   56 1
  42   18   19 am
  43   18   57 1
  44   19   20 2
  45   19   21 1
  46   21   22 1
  47   21   28 1
  48   21   58 1
  49   22   23 1
  50   22   59 1
  51   22   60 1
  52   23   24 1
  53   23   61 1
  54   23   62 1
  55   24   25 1
  56   24   26 1
  57   24   27 1
  58   27   28 1
  59   27   63 1
  60   27   64 1
  61   28   65 1
  62   28   66 1
  63   29   30 ar
  64   29   34 ar
  65   30   31 ar
  66   30   67 1
  67   31   32 ar
  68   31   68 1
  69   32   33 ar
  70   32   69 1
  71   33   34 ar
  72   33   70 1
  73   34   71 1
  74   35   36 1
  75   35   37 1
  76   35   72 1
  77   36   73 1
  78   36   74 1
  79   36   75 1
  80   37   76 1
  81   37   77 1
  82   37   78 1

#	End of record

