#	Name: ASD01209158
#	Creating user name:	WinNT
#	Creation time:	15. 06. 2019 19:11

#	Modifying user name:	WinNT
#	Modification time:	15. 06. 2019 19:11

#	Program:	/corina/corina34_cracker 3.40 0067  02.08.2006

@<TRIPOS>MOLECULE
ASD01209158
  66   67    0    0    0
SMALL
NO_CHARGES


@<TRIPOS>ATOM
   1 O1            -0.8742     3.1301     0.6771 O.3     
   2 O2             1.1609     3.9940     2.1000 O.3     
   3 C3             0.2754     6.4632    -9.4711 C.ar    
   4 C4             1.6520     6.6323    -9.4990 C.ar    
   5 C5             2.3787     6.6361    -8.3170 C.ar    
   6 C6             1.7318     6.4718    -7.1036 C.ar    
   7 C7             0.3471     6.3013    -7.0708 C.ar    
   8 C8            -0.3803     6.3034    -8.2614 C.ar    
   9 O9             3.7273     6.8012    -8.3501 O.3     
  10 C10            4.3981     6.9138    -7.0934 C.3     
  11 C11           -0.3476     6.1245    -5.7781 C.2     
  12 N12            0.3563     6.1278    -4.6288 N.am    
  13 O13           -1.5539     5.9761    -5.7515 O.2     
  14 C14           -0.2964     5.9616    -3.4141 C.2     
  15 P15            0.4666     4.0209     0.6476 P.3     
  16 O16            1.4031     3.4697    -0.3572 O.2     
  17 C17            0.0451     5.7390     0.2073 C.3     
  18 N18            0.2839     5.9492    -2.2548 N.2     
  19 S19           -1.9830     5.7511    -3.2294 S.3     
  20 C20           -1.7890     5.6443    -1.4817 C.2     
  21 C21           -0.4916     5.7796    -1.2003 C.2     
  22 C22           -0.8652     1.7169     0.8884 C.3     
  23 C23           -2.3002     1.1873     0.8568 C.3     
  24 C24            1.7010     2.8061     2.6825 C.3     
  25 C25            2.2814     3.1321     4.0601 C.3     
  26 O26           -0.4315     6.4599   -10.6318 O.3     
  27 C27           -1.8272     6.1669   -10.5405 C.3     
  28 C28            4.7034     5.5161    -6.5511 C.3     
  29 C29            5.7062     7.6850    -7.2808 C.3     
  30 C30           -2.3172     5.5985   -11.8738 C.3     
  31 C31           -2.5975     7.4491   -10.2187 C.3     
  32 O32           -2.2066     6.5994   -12.8878 O.3     
  33 C33           -2.6408     6.1688   -14.1793 C.3     
  34 H34            2.1596     6.7610   -10.4435 H       
  35 H35            2.2982     6.4745    -6.1840 H       
  36 H36           -1.4521     6.1718    -8.2405 H       
  37 H37            3.7605     7.4461    -6.3875 H       
  38 H38            1.3189     6.2462    -4.6499 H       
  39 H39           -0.7116     6.1153     0.8957 H       
  40 H40            0.9381     6.3606     0.2738 H       
  41 H41           -2.5820     5.4986    -0.7632 H       
  42 H42           -0.2830     1.2357     0.1024 H       
  43 H43           -0.4181     1.4973     1.8579 H       
  44 H44           -2.2934     0.1093     1.0179 H       
  45 H45           -2.8824     1.6684     1.6427 H       
  46 H46           -2.7473     1.4069    -0.1127 H       
  47 H47            0.9118     2.0617     2.7877 H       
  48 H48            2.4887     2.4123     2.0403 H       
  49 H49            3.0707     3.8765     3.9550 H       
  50 H50            1.4937     3.5260     4.7023 H       
  51 H51            2.6934     2.2261     4.5045 H       
  52 H52           -1.9938     5.4349    -9.7503 H       
  53 H53            5.2151     5.6019    -5.5926 H       
  54 H54            3.7715     4.9666    -6.4176 H       
  55 H55            5.3410     4.9838    -7.2570 H       
  56 H56            5.4887     8.6808    -7.6671 H       
  57 H57            6.2179     7.7709    -6.3222 H       
  58 H58            6.3438     7.1527    -7.9866 H       
  59 H59           -1.7090     4.7361   -12.1467 H       
  60 H60           -3.3590     5.2926   -11.7775 H       
  61 H61           -3.6620     7.2256   -10.1491 H       
  62 H62           -2.2483     7.8540    -9.2689 H       
  63 H63           -2.4308     8.1811   -11.0090 H       
  64 H64           -2.0393     5.3183   -14.5000 H       
  65 H65           -3.6892     5.8747   -14.1308 H       
  66 H66           -2.5250     6.9851   -14.8923 H       
@<TRIPOS>BOND
   1    1   22 1
   2    1   15 1
   3    2   24 1
   4    2   15 1
   5    3    4 ar
   6    3   26 1
   7    3    8 ar
   8    4    5 ar
   9    4   34 1
  10    5    6 ar
  11    5    9 1
  12    6    7 ar
  13    6   35 1
  14    7    8 ar
  15    7   11 1
  16    8   36 1
  17    9   10 1
  18   10   28 1
  19   10   29 1
  20   10   37 1
  21   11   12 am
  22   11   13 2
  23   12   14 1
  24   12   38 1
  25   14   18 2
  26   14   19 1
  27   15   16 2
  28   15   17 1
  29   17   21 1
  30   17   39 1
  31   17   40 1
  32   18   21 1
  33   19   20 1
  34   20   21 2
  35   20   41 1
  36   22   23 1
  37   22   42 1
  38   22   43 1
  39   23   44 1
  40   23   45 1
  41   23   46 1
  42   24   25 1
  43   24   47 1
  44   24   48 1
  45   25   49 1
  46   25   50 1
  47   25   51 1
  48   26   27 1
  49   27   30 1
  50   27   31 1
  51   27   52 1
  52   28   53 1
  53   28   54 1
  54   28   55 1
  55   29   56 1
  56   29   57 1
  57   29   58 1
  58   30   32 1
  59   30   59 1
  60   30   60 1
  61   31   61 1
  62   31   62 1
  63   31   63 1
  64   32   33 1
  65   33   64 1
  66   33   65 1
  67   33   66 1

#	End of record

