#	Name: ASD08178516
#	Creating user name:	WinNT
#	Creation time:	15. 06. 2019 21:19

#	Modifying user name:	WinNT
#	Modification time:	15. 06. 2019 21:19

#	Program:	/corina/corina34_cracker 3.40 0067  02.08.2006

@<TRIPOS>MOLECULE
ASD08178516
  75   78    0    0    0
SMALL
NO_CHARGES


@<TRIPOS>ATOM
   1 C1            -0.0155     1.2910     0.0091 C.2     
   2 N2             0.0021    -0.0041     0.0020 N.2     
   3 S3             1.6574     1.8505    -0.0038 S.3     
   4 C4             2.1822     0.2198    -0.0176 C.2     
   5 N5             1.1387    -0.5535    -0.0118 N.2     
   6 C6            -6.0049     1.8403     2.9282 C.2     
   7 N7            -6.2634     0.5711     2.9236 N.2     
   8 N8            -7.4824     0.2429     2.9333 N.2     
   9 C9            -8.3637     1.1969     2.9470 C.2     
  10 S10           -7.5443     2.7014     2.9477 S.3     
  11 N11           -9.7438     1.0256     2.9587 N.am    
  12 N12            3.5063    -0.2055    -0.0329 N.am    
  13 C13           -1.2444     2.1632     0.0200 C.3     
  14 C14           -1.6527     2.4511     1.4661 C.3     
  15 N15           -2.8474     3.2990     1.4766 N.am    
  16 C16           -4.1790     2.6884     1.4805 C.3     
  17 C17           -4.6351     2.4684     2.9243 C.3     
  18 C18           -2.7213     4.6408     1.4828 C.2     
  19 O19           -3.8192     5.4201     1.4925 O.3     
  20 O20           -1.6168     5.1473     1.4796 O.2     
  21 C21           -3.6079     6.8566     1.4987 C.3     
  22 C22           -2.8267     7.2626     0.2474 C.3     
  23 C23           -4.9609     7.5711     1.5094 C.3     
  24 C24           -2.8136     7.2499     2.7458 C.3     
  25 C25          -10.2688    -0.2158     2.9568 C.2     
  26 O26           -9.5376    -1.1834     2.9449 O.2     
  27 C27          -11.7642    -0.4015     2.9695 C.3     
  28 C28          -12.0877    -1.8734     2.9645 C.ar    
  29 C29          -12.2251    -2.5549     4.1593 C.ar    
  30 C30          -12.2526    -2.5407     1.7652 C.ar    
  31 C31          -12.5493    -3.8908     1.7606 C.ar    
  32 C32          -12.6807    -4.5737     2.9553 C.ar    
  33 C33          -12.5217    -3.9050     4.1547 C.ar    
  34 C34            3.7908    -1.5228    -0.0427 C.2     
  35 O35            2.8923    -2.3374    -0.0381 O.2     
  36 C36            5.2255    -1.9837    -0.0593 C.3     
  37 C37            5.2692    -3.4900    -0.0677 C.ar    
  38 C38            5.2774    -4.1746    -1.2686 C.ar    
  39 C39            5.3174    -5.5563    -1.2762 C.ar    
  40 C40            5.3497    -6.2535    -0.0830 C.ar    
  41 C41            5.3425    -5.5689     1.1179 C.ar    
  42 C42            5.3068    -4.1870     1.1255 C.ar    
  43 H43          -10.3286     1.7994     2.9683 H       
  44 H44            4.2249     0.4460    -0.0366 H       
  45 H45           -1.0282     3.1019    -0.4902 H       
  46 H46           -2.0585     1.6504    -0.4922 H       
  47 H47           -1.8689     1.5124     1.9763 H       
  48 H48           -0.8387     2.9639     1.9783 H       
  49 H49           -4.8829     3.3485     0.9737 H       
  50 H50           -4.1410     1.7306     0.9616 H       
  51 H51           -4.6731     3.4263     3.4432 H       
  52 H52           -3.9312     1.8083     3.4311 H       
  53 H53           -3.3925     6.9824    -0.6411 H       
  54 H54           -2.6681     8.3410     0.2521 H       
  55 H55           -1.8628     6.7537     0.2398 H       
  56 H56           -5.5174     7.2818     2.4008 H       
  57 H57           -4.8022     8.6494     1.5140 H       
  58 H58           -5.5267     7.2909     0.6209 H       
  59 H59           -1.8498     6.7410     2.7382 H       
  60 H60           -2.6550     8.3283     2.7505 H       
  61 H61           -3.3702     6.9607     3.6373 H       
  62 H62          -12.1799     0.0588     3.8659 H       
  63 H63          -12.1962     0.0685     2.0860 H       
  64 H64          -12.1003    -2.0326     5.0963 H       
  65 H65          -12.1500    -2.0072     0.8318 H       
  66 H66          -12.6788    -4.4120     0.8236 H       
  67 H67          -12.9128    -5.6284     2.9517 H       
  68 H68          -12.6243    -4.4385     5.0881 H       
  69 H69            5.7198    -1.6009    -0.9522 H       
  70 H70            5.7374    -1.6102     0.8276 H       
  71 H71            5.2522    -3.6299    -2.2008 H       
  72 H72            5.3231    -6.0912    -2.2145 H       
  73 H73            5.3803    -7.3330    -0.0890 H       
  74 H74            5.3674    -6.1136     2.0502 H       
  75 H75            5.3012    -3.6521     2.0638 H       
@<TRIPOS>BOND
   1    1    2 2
   2    1    3 1
   3    1   13 1
   4    2    5 1
   5    3    4 1
   6    4    5 2
   7    4   12 1
   8    6    7 2
   9    6   10 1
  10    6   17 1
  11    7    8 1
  12    8    9 2
  13    9   10 1
  14    9   11 1
  15   11   25 am
  16   11   43 1
  17   12   34 am
  18   12   44 1
  19   13   14 1
  20   13   45 1
  21   13   46 1
  22   14   15 1
  23   14   47 1
  24   14   48 1
  25   15   16 1
  26   15   18 am
  27   16   17 1
  28   16   49 1
  29   16   50 1
  30   17   51 1
  31   17   52 1
  32   18   19 1
  33   18   20 2
  34   19   21 1
  35   21   22 1
  36   21   23 1
  37   21   24 1
  38   22   53 1
  39   22   54 1
  40   22   55 1
  41   23   56 1
  42   23   57 1
  43   23   58 1
  44   24   59 1
  45   24   60 1
  46   24   61 1
  47   25   26 2
  48   25   27 1
  49   27   28 1
  50   27   62 1
  51   27   63 1
  52   28   29 ar
  53   28   30 ar
  54   29   33 ar
  55   29   64 1
  56   30   31 ar
  57   30   65 1
  58   31   32 ar
  59   31   66 1
  60   32   33 ar
  61   32   67 1
  62   33   68 1
  63   34   35 2
  64   34   36 1
  65   36   37 1
  66   36   69 1
  67   36   70 1
  68   37   38 ar
  69   37   42 ar
  70   38   39 ar
  71   38   71 1
  72   39   40 ar
  73   39   72 1
  74   40   41 ar
  75   40   73 1
  76   41   42 ar
  77   41   74 1
  78   42   75 1

#	End of record

