#	Name: ASD00840969
#	Creating user name:	WinNT
#	Creation time:	15. 06. 2019 18:40

#	Modifying user name:	WinNT
#	Modification time:	15. 06. 2019 18:40

#	Program:	/corina/corina34_cracker 3.40 0067  02.08.2006

@<TRIPOS>MOLECULE
ASD00840969
  85   90    0    0    0
SMALL
NO_CHARGES


@<TRIPOS>ATOM
   1 F1             6.0692    -1.9367    -2.0373 F       
   2 N2             1.0658     1.4647    -0.7413 N.ar    
   3 C3             1.3280     0.1734    -0.8536 C.ar    
   4 C4             1.2497    -0.6636     0.2523 C.ar    
   5 C5             0.8928    -0.1286     1.4776 C.ar    
   6 C6             0.6255     1.2316     1.5536 C.ar    
   7 C7             0.7230     2.0038     0.4134 C.ar    
   8 C8             1.5489    -2.1346     0.1194 C.3     
   9 C9             1.2683    -2.8527     1.4223 C.2     
  10 C10            0.7280    -2.7466    -1.0174 C.3     
  11 C11           -0.7341    -2.4588    -0.7927 C.2     
  12 N12           -1.6588    -2.9782    -1.6243 N.am    
  13 O13           -1.0787    -1.7597     0.1366 O.2     
  14 C14           -3.0764    -2.6177    -1.4864 C.3     
  15 C15           -3.9031    -3.9024    -1.3726 C.3     
  16 C16           -3.5983    -4.8080    -2.5681 C.3     
  17 C17           -2.1152    -5.1855    -2.5591 C.3     
  18 C18           -1.2675    -3.9110    -2.6899 C.3     
  19 C19           -4.4479    -6.0771    -2.4759 C.3     
  20 C20           -5.9321    -5.7010    -2.4865 C.3     
  21 C21           -6.7768    -6.9768    -2.4556 C.3     
  22 N22           -6.4553    -7.8066    -3.6237 N.3     
  23 C23           -5.0461    -8.2193    -3.6102 C.3     
  24 C24           -4.1498    -6.9806    -3.6756 C.3     
  25 H25           -7.0663    -8.6079    -3.6772 H       
  26 O26            0.1968    -2.9314     1.9852 O.2     
  27 N27            2.4290    -3.3869     1.8377 N.am    
  28 C28            3.0261    -2.3557    -0.1118 C.ar    
  29 C29            3.4804    -3.1138     0.9601 C.ar    
  30 C30            3.8856    -1.9613    -1.1125 C.ar    
  31 C31            5.2224    -2.3212    -1.0572 C.ar    
  32 C32            5.6880    -3.0777     0.0076 C.ar    
  33 C33            4.8252    -3.4732     1.0116 C.ar    
  34 F34            6.9912    -3.4296     0.0635 F       
  35 C35            2.3021    -5.9555     2.8180 C.ar    
  36 C36            3.3544    -6.7622     2.4262 C.ar    
  37 C37            1.0219    -6.4726     2.8922 C.ar    
  38 C38            0.7913    -7.7972     2.5748 C.ar    
  39 C39            1.8455    -8.6086     2.1814 C.ar    
  40 C40            3.1290    -8.0873     2.1074 C.ar    
  41 O41            1.6213    -9.9121     1.8691 O.3     
  42 H42            4.3535    -6.3559     2.3691 H       
  43 C43            2.7536   -10.6882     1.4722 C.3     
  44 O44            1.6764    -0.3390    -2.0607 O.3     
  45 C45            2.1651    -0.1686    -4.4213 C.3     
  46 C46            1.6312     0.5486    -3.1797 C.3     
  47 S47            2.5940    -4.2675     3.2305 S.o2    
  48 O48            3.9623    -4.1763     3.6031 O.2     
  49 O49            1.5283    -3.8727     4.0834 O.2     
  50 H50            0.8234    -0.7550     2.3547 H       
  51 H51            0.3440     1.6808     2.4945 H       
  52 H52            0.5165     3.0625     0.4672 H       
  53 H53            1.0420    -2.3126    -1.9667 H       
  54 H54            0.8867    -3.8247    -1.0406 H       
  55 H55           -3.2143    -2.0138    -0.5896 H       
  56 H56           -3.3968    -2.0534    -2.3622 H       
  57 H57           -3.6453    -4.4203    -0.4489 H       
  58 H58           -4.9641    -3.6529    -1.3665 H       
  59 H59           -3.8331    -4.2804    -3.4925 H       
  60 H60           -1.8742    -5.6913    -1.6242 H       
  61 H61           -1.9037    -5.8493    -3.3974 H       
  62 H62           -1.4416    -3.4548    -3.6644 H       
  63 H63           -0.2120    -4.1618    -2.5849 H       
  64 H64           -4.2128    -6.6065    -1.5526 H       
  65 H65           -6.1597    -5.0927    -1.6112 H       
  66 H66           -6.1582    -5.1368    -3.3913 H       
  67 H67           -6.5604    -7.5337    -1.5439 H       
  68 H68           -7.8342    -6.7130    -2.4775 H       
  69 H69           -4.8378    -8.7704    -2.6931 H       
  70 H70           -4.8464    -8.8579    -4.4707 H       
  71 H71           -4.3478    -6.4365    -4.5991 H       
  72 H72           -3.1039    -7.2865    -3.6498 H       
  73 H73            3.5180    -1.3725    -1.9399 H       
  74 H74            5.1943    -4.0620     1.8383 H       
  75 H75            0.2016    -5.8405     3.1988 H       
  76 H76           -0.2088    -8.2007     2.6332 H       
  77 H77            3.9514    -8.7171     1.8017 H       
  78 H78            3.2027   -10.2469     0.5824 H       
  79 H79            3.4856   -10.7022     2.2797 H       
  80 H80            2.4363   -11.7074     1.2516 H       
  81 H81            2.2126     0.5333    -5.2540 H       
  82 H82            3.1627    -0.5567    -4.2159 H       
  83 H83            1.5003    -0.9931    -4.6786 H       
  84 H84            0.6016     0.8604    -3.3548 H       
  85 H85            2.2461     1.4247    -2.9736 H       
@<TRIPOS>BOND
   1    1   31 1
   2    2    3 ar
   3    2    7 ar
   4    3    4 ar
   5    3   44 1
   6    4    5 ar
   7    4    8 1
   8    5    6 ar
   9    5   50 1
  10    6    7 ar
  11    6   51 1
  12    7   52 1
  13    8    9 1
  14    8   10 1
  15    8   28 1
  16    9   26 2
  17    9   27 am
  18   10   11 1
  19   10   53 1
  20   10   54 1
  21   11   12 am
  22   11   13 2
  23   12   14 1
  24   12   18 1
  25   14   15 1
  26   14   55 1
  27   14   56 1
  28   15   16 1
  29   15   57 1
  30   15   58 1
  31   16   17 1
  32   16   19 1
  33   16   59 1
  34   17   18 1
  35   17   60 1
  36   17   61 1
  37   18   62 1
  38   18   63 1
  39   19   20 1
  40   19   24 1
  41   19   64 1
  42   20   21 1
  43   20   65 1
  44   20   66 1
  45   21   22 1
  46   21   67 1
  47   21   68 1
  48   22   23 1
  49   22   25 1
  50   23   24 1
  51   23   69 1
  52   23   70 1
  53   24   71 1
  54   24   72 1
  55   27   47 am
  56   27   29 1
  57   28   29 ar
  58   28   30 ar
  59   29   33 ar
  60   30   31 ar
  61   30   73 1
  62   31   32 ar
  63   32   33 ar
  64   32   34 1
  65   33   74 1
  66   35   36 ar
  67   35   37 ar
  68   35   47 1
  69   36   42 1
  70   36   40 ar
  71   37   38 ar
  72   37   75 1
  73   38   39 ar
  74   38   76 1
  75   39   40 ar
  76   39   41 1
  77   40   77 1
  78   41   43 1
  79   43   78 1
  80   43   79 1
  81   43   80 1
  82   44   46 1
  83   45   46 1
  84   45   81 1
  85   45   82 1
  86   45   83 1
  87   46   84 1
  88   46   85 1
  89   47   48 2
  90   47   49 2

#	End of record

