#	Name: ASD05062028
#	Creating user name:	WinNT
#	Creation time:	15. 06. 2019 20:56

#	Modifying user name:	WinNT
#	Modification time:	15. 06. 2019 20:56

#	Program:	/corina/corina34_cracker 3.40 0067  02.08.2006

@<TRIPOS>MOLECULE
ASD05062028
  21   22    0    0    0
SMALL
NO_CHARGES


@<TRIPOS>ATOM
   1 N1            -0.0164     1.3547     0.0095 N.pl3   
   2 C2             0.0021    -0.0041     0.0020 C.2     
   3 C3            -1.2866    -0.4359     0.0125 C.2     
   4 C4            -2.1205     0.6999     0.0269 C.2     
   5 N5            -1.3534     1.7711     0.0306 N.2     
   6 N6             1.1375    -0.8095    -0.0143 N.pl3   
   7 C7             1.1576     2.2311     0.0030 C.3     
   8 C8            -3.5996     0.6910     0.0408 C.2     
   9 C9            -4.3841     1.7864     0.0544 C.2     
  10 C10           -5.7394     1.5252     0.0652 C.2     
  11 C11           -6.0660     0.2301     0.0605 C.2     
  12 S12           -4.6067    -0.7510     0.0343 S.3     
  13 H13           -1.6130    -1.4653     0.0102 H       
  14 H14            2.0190    -0.4049    -0.0214 H       
  15 H15            1.0470    -1.7752    -0.0185 H       
  16 H16            1.4390     2.4540    -1.0262 H       
  17 H17            0.9213     3.1589     0.5241 H       
  18 H18            1.9860     1.7325     0.5063 H       
  19 H19           -3.9841     2.7896     0.0571 H       
  20 H20           -6.4811     2.3102     0.0770 H       
  21 H21           -7.0744    -0.1564     0.0674 H       
@<TRIPOS>BOND
   1    1    2 1
   2    1    7 1
   3    1    5 1
   4    2    3 2
   5    2    6 1
   6    3    4 1
   7    3   13 1
   8    4    5 2
   9    4    8 1
  10    6   14 1
  11    6   15 1
  12    7   16 1
  13    7   17 1
  14    7   18 1
  15    8    9 2
  16    8   12 1
  17    9   10 1
  18    9   19 1
  19   10   11 2
  20   10   20 1
  21   11   12 1
  22   11   21 1

#	End of record

