#	Name: ASD01884337
#	Creating user name:	WinNT
#	Creation time:	15. 06. 2019 19:48

#	Modifying user name:	WinNT
#	Modification time:	15. 06. 2019 19:48

#	Program:	/corina/corina34_cracker 3.40 0067  02.08.2006

@<TRIPOS>MOLECULE
ASD01884337
  59   61    0    0    0
SMALL
NO_CHARGES


@<TRIPOS>ATOM
   1 C1            -0.1986    -0.5302     1.9403 C.2     
   2 C2             0.9041    -1.0593     1.2552 C.2     
   3 C3             1.7220    -1.9945     1.9101 C.2     
   4 C4             1.4398    -2.3691     3.1785 C.2     
   5 N5             0.3727    -1.8584     3.8443 N.am    
   6 C6            -0.4422    -0.9546     3.2690 C.2     
   7 O7            -1.3944    -0.5098     3.8873 O.2     
   8 C8             0.1064    -2.2948     5.2172 C.3     
   9 C9             0.8391    -1.3748     6.1959 C.3     
  10 C10           -1.0588     0.4258     1.3104 C.1     
  11 N11           -1.7412     1.1842     0.8107 N.1     
  12 O12            1.1751    -0.6767    -0.0132 O.3     
  13 N13            2.3524     0.1830    -0.1367 N.3     
  14 C14            3.1852     0.1125     1.0721 C.3     
  15 C15            4.4431     0.9611     0.8719 C.3     
  16 N16            4.0541     2.3487     0.5841 N.3     
  17 C17            3.2213     2.4192    -0.6247 C.3     
  18 C18            1.9634     1.5706    -0.4245 C.3     
  19 C19            0.5610    -1.8305     7.6298 C.3     
  20 C20            1.1650    -3.2189     7.8499 C.3     
  21 C21            1.1900    -0.8394     8.6110 C.3     
  22 C22            5.2362     3.2119     0.4601 C.3     
  23 C23            4.8208     4.5591    -0.0724 C.ar    
  24 C24            4.4626     5.5674     0.8023 C.ar    
  25 C25            4.0814     6.8034     0.3138 C.ar    
  26 C26            4.0587     7.0306    -1.0493 C.ar    
  27 C27            4.4175     6.0221    -1.9244 C.ar    
  28 C28            4.8035     4.7882    -1.4358 C.ar    
  29 C29            3.6903     7.9026     1.2676 C.3     
  30 F30            4.8236     8.6482     1.6098 F       
  31 F31            2.7497     8.7382     0.6557 F       
  32 F32            3.1346     7.3421     2.4226 F       
  33 H33            2.5764    -2.4149     1.4005 H       
  34 H34            2.0759    -3.0893     3.6715 H       
  35 H35           -0.9654    -2.2514     5.4109 H       
  36 H36            0.4581    -3.3182     5.3479 H       
  37 H37            1.9109    -1.4182     6.0023 H       
  38 H38            0.4874    -0.3514     6.0653 H       
  39 H39            2.6220     0.4925     1.9244 H       
  40 H40            3.4707    -0.9231     1.2570 H       
  41 H41            5.0483     0.9335     1.7780 H       
  42 H42            5.0202     0.5645     0.0366 H       
  43 H43            2.9357     3.4548    -0.8096 H       
  44 H44            3.7845     2.0392    -1.4770 H       
  45 H45            1.3582     1.5982    -1.3306 H       
  46 H46            1.3863     1.9672     0.4108 H       
  47 H47           -0.5155    -1.8722     7.7954 H       
  48 H48            0.7168    -3.9251     7.1508 H       
  49 H49            2.2415    -3.1773     7.6842 H       
  50 H50            0.9668    -3.5436     8.8714 H       
  51 H51            0.7597     0.1498     8.4542 H       
  52 H52            0.9919    -1.1640     9.6325 H       
  53 H53            2.2665    -0.7977     8.4453 H       
  54 H54            5.7003     3.3353     1.4386 H       
  55 H55            5.9498     2.7546    -0.2253 H       
  56 H56            4.4800     5.3898     1.8675 H       
  57 H57            3.7603     7.9958    -1.4310 H       
  58 H58            4.3994     6.1995    -2.9895 H       
  59 H59            5.0839     4.0004    -2.1193 H       
@<TRIPOS>BOND
   1    1    2 2
   2    1   10 1
   3    1    6 1
   4    2    3 1
   5    2   12 1
   6    3    4 2
   7    3   33 1
   8    4    5 1
   9    4   34 1
  10    5    6 am
  11    5    8 1
  12    6    7 2
  13    8    9 1
  14    8   35 1
  15    8   36 1
  16    9   19 1
  17    9   37 1
  18    9   38 1
  19   10   11 3
  20   12   13 1
  21   13   14 1
  22   13   18 1
  23   14   15 1
  24   14   39 1
  25   14   40 1
  26   15   16 1
  27   15   41 1
  28   15   42 1
  29   16   17 1
  30   16   22 1
  31   17   18 1
  32   17   43 1
  33   17   44 1
  34   18   45 1
  35   18   46 1
  36   19   20 1
  37   19   21 1
  38   19   47 1
  39   20   48 1
  40   20   49 1
  41   20   50 1
  42   21   51 1
  43   21   52 1
  44   21   53 1
  45   22   23 1
  46   22   54 1
  47   22   55 1
  48   23   24 ar
  49   23   28 ar
  50   24   25 ar
  51   24   56 1
  52   25   29 1
  53   25   26 ar
  54   26   27 ar
  55   26   57 1
  56   27   28 ar
  57   27   58 1
  58   28   59 1
  59   29   30 1
  60   29   31 1
  61   29   32 1

#	End of record

