#	Name: ASD01150902
#	Creating user name:	WinNT
#	Creation time:	15. 06. 2019 19:05

#	Modifying user name:	WinNT
#	Modification time:	15. 06. 2019 19:05

#	Program:	/corina/corina34_cracker 3.40 0067  02.08.2006

@<TRIPOS>MOLECULE
ASD01150902
  46   48    0    0    0
SMALL
NO_CHARGES


@<TRIPOS>ATOM
   1 C1            -0.0178     1.4610     0.0101 C.2     
   2 C2             0.0021    -0.0041     0.0020 C.2     
   3 N3             1.1783    -0.6620    -0.0122 N.am    
   4 O4            -1.0435    -0.6269     0.0082 O.2     
   5 C5             1.1971    -2.0515    -0.0199 C.2     
   6 N6             0.1293    -2.8532    -0.0149 N.2     
   7 C7             0.5116    -4.1139    -0.0258 C.2     
   8 N8             1.8683    -4.1726    -0.0385 N.pl3   
   9 C9             2.3304    -2.8552    -0.0401 C.2     
  10 C10            3.6730    -2.4275    -0.0521 C.2     
  11 O11            4.6714    -3.3371    -0.0636 O.3     
  12 O12            3.9332    -1.2378    -0.0521 O.2     
  13 C13            6.0084    -2.8327    -0.0754 C.3     
  14 C14            6.9946    -4.0024    -0.0874 C.3     
  15 S15           -0.5685    -5.5060    -0.0237 S.3     
  16 C16           -2.1694    -4.6618    -0.0045 C.3     
  17 C17            2.6894    -5.3858    -0.0531 C.3     
  18 C18            2.9586    -5.7930    -1.4788 C.ar    
  19 C19            4.0734    -5.3088    -2.1372 C.ar    
  20 C20            4.3203    -5.6823    -3.4450 C.ar    
  21 C21            3.4527    -6.5405    -4.0943 C.ar    
  22 C22            2.3383    -7.0255    -3.4355 C.ar    
  23 C23            2.0938    -6.6554    -2.1263 C.ar    
  24 S24            1.4004     2.5004     0.0021 S.3     
  25 C25            0.4298     3.9035     0.0189 C.2     
  26 C26           -0.8703     3.5862     0.0296 C.2     
  27 C27           -1.1418     2.2388     0.0190 C.2     
  28 H28            2.0116    -0.1656    -0.0172 H       
  29 H29            6.1584    -2.2219    -0.9656 H       
  30 H30            6.1755    -2.2256     0.8143 H       
  31 H31            8.0144    -3.6177    -0.0963 H       
  32 H32            6.8445    -4.6133     0.8028 H       
  33 H33            6.8274    -4.6095    -0.9771 H       
  34 H34           -2.2430    -4.0427     0.8896 H       
  35 H35           -2.2592    -4.0329    -0.8902 H       
  36 H36           -2.9701    -5.4013    -0.0013 H       
  37 H37            3.6346    -5.1909     0.4538 H       
  38 H38            2.1606    -6.1887     0.4605 H       
  39 H39            4.7513    -4.6383    -1.6300 H       
  40 H40            5.1909    -5.3034    -3.9597 H       
  41 H41            3.6452    -6.8318    -5.1163 H       
  42 H42            1.6602    -7.6957    -3.9429 H       
  43 H43            1.2232    -7.0343    -1.6116 H       
  44 H44            0.8134     4.9131     0.0210 H       
  45 H45           -1.6492     4.3342     0.0411 H       
  46 H46           -2.1434     1.8348     0.0254 H       
@<TRIPOS>BOND
   1    1    2 1
   2    1   24 1
   3    1   27 2
   4    2    3 am
   5    2    4 2
   6    3    5 1
   7    3   28 1
   8    5    6 1
   9    5    9 2
  10    6    7 2
  11    7    8 1
  12    7   15 1
  13    8    9 1
  14    8   17 1
  15    9   10 1
  16   10   11 1
  17   10   12 2
  18   11   13 1
  19   13   14 1
  20   13   29 1
  21   13   30 1
  22   14   31 1
  23   14   32 1
  24   14   33 1
  25   15   16 1
  26   16   34 1
  27   16   35 1
  28   16   36 1
  29   17   18 1
  30   17   37 1
  31   17   38 1
  32   18   19 ar
  33   18   23 ar
  34   19   20 ar
  35   19   39 1
  36   20   21 ar
  37   20   40 1
  38   21   22 ar
  39   21   41 1
  40   22   23 ar
  41   22   42 1
  42   23   43 1
  43   24   25 1
  44   25   26 2
  45   25   44 1
  46   26   27 1
  47   26   45 1
  48   27   46 1

#	End of record

