#	Name: ASD05060036
#	Creating user name:	WinNT
#	Creation time:	15. 06. 2019 20:56

#	Modifying user name:	WinNT
#	Modification time:	15. 06. 2019 20:56

#	Program:	/corina/corina34_cracker 3.40 0067  02.08.2006

@<TRIPOS>MOLECULE
ASD05060036
  43   45    0    0    0
SMALL
NO_CHARGES


@<TRIPOS>ATOM
   1 C1            -0.0167     1.3782     0.0096 C.ar    
   2 C2             0.0021    -0.0041     0.0020 C.ar    
   3 C3             1.2079    -0.6800    -0.0132 C.ar    
   4 C4             2.3962     0.0256    -0.0208 C.ar    
   5 F5             3.5396     2.1009    -0.0210 F       
   6 C6             2.3786     1.4101    -0.0132 C.ar    
   7 C7             1.1703     2.0860     0.0021 C.ar    
   8 C8            -1.2930    -0.7747     0.0108 C.3     
   9 N9            -1.7264    -1.0170    -1.3675 N.pl3   
  10 C10           -2.5994    -0.2391    -2.0508 C.2     
  11 C11           -1.2980    -2.0667    -2.1543 C.ar    
  12 C12           -1.9374    -1.9502    -3.3974 C.ar    
  13 C13           -2.7839    -0.7466    -3.3060 C.2     
  14 C14           -0.4175    -3.1222    -1.9353 C.ar    
  15 C15           -0.1795    -4.0410    -2.9344 C.ar    
  16 C16           -0.8101    -3.9282    -4.1642 C.ar    
  17 C17           -1.6895    -2.8877    -4.4029 C.ar    
  18 O18           -2.3073    -2.7774    -5.6081 O.3     
  19 C19           -2.0026    -3.7730    -6.5868 C.3     
  20 C20           -3.6539    -0.2012    -4.3563 C.2     
  21 C21           -4.4370     1.0144    -4.1029 C.2     
  22 O22           -3.7256    -0.7574    -5.4375 O.2     
  23 C23           -5.2381     1.5165    -5.0699 C.2     
  24 C24           -6.0274     2.7417    -4.8145 C.2     
  25 O25           -5.9559     3.2962    -3.7366 O.2     
  26 O26           -6.8254     3.2420    -5.7778 O.3     
  27 O27           -5.3177     0.8982    -6.2717 O.3     
  28 H28           -0.9593     1.9053     0.0170 H       
  29 H29            1.2214    -1.7599    -0.0187 H       
  30 H30            3.3381    -0.5027    -0.0323 H       
  31 H31            1.1554     3.1659     0.0077 H       
  32 H32           -1.1450    -1.7280     0.5181 H       
  33 H33           -2.0551    -0.1984     0.5353 H       
  34 H34           -3.0777     0.6479    -1.6624 H       
  35 H35            0.0799    -3.2209    -0.9817 H       
  36 H36            0.5055    -4.8571    -2.7579 H       
  37 H37           -0.6139    -4.6554    -4.9382 H       
  38 H38           -0.9343    -3.7554    -6.8026 H       
  39 H39           -2.2799    -4.7553    -6.2044 H       
  40 H40           -2.5612    -3.5676    -7.5000 H       
  41 H41           -4.3735     1.5076    -3.1442 H       
  42 H42           -7.3215     4.0441    -5.5643 H       
  43 H43           -5.9151     1.3303    -6.8975 H       
@<TRIPOS>BOND
   1    1    2 ar
   2    1    7 ar
   3    1   28 1
   4    2    3 ar
   5    2    8 1
   6    3    4 ar
   7    3   29 1
   8    4    6 ar
   9    4   30 1
  10    5    6 1
  11    6    7 ar
  12    7   31 1
  13    8    9 1
  14    8   32 1
  15    8   33 1
  16    9   10 1
  17    9   11 1
  18   10   13 2
  19   10   34 1
  20   11   12 ar
  21   11   14 ar
  22   12   13 1
  23   12   17 ar
  24   13   20 1
  25   14   15 ar
  26   14   35 1
  27   15   16 ar
  28   15   36 1
  29   16   17 ar
  30   16   37 1
  31   17   18 1
  32   18   19 1
  33   19   38 1
  34   19   39 1
  35   19   40 1
  36   20   21 1
  37   20   22 2
  38   21   23 2
  39   21   41 1
  40   23   24 1
  41   23   27 1
  42   24   25 2
  43   24   26 1
  44   26   42 1
  45   27   43 1

#	End of record

