#	Name: ASD01814686
#	Creating user name:	WinNT
#	Creation time:	15. 06. 2019 19:32

#	Modifying user name:	WinNT
#	Modification time:	15. 06. 2019 19:32

#	Program:	/corina/corina34_cracker 3.40 0067  02.08.2006

@<TRIPOS>MOLECULE
ASD01814686
  53   56    0    0    0
SMALL
NO_CHARGES


@<TRIPOS>ATOM
   1 C1             0.5848     1.1346    -1.0080 C.2     
   2 N2            -0.7003     1.5727    -1.2003 N.pl3   
   3 N3            -1.5433     0.4592    -1.1251 N.2     
   4 C4            -0.8133    -0.6139    -0.8974 C.2     
   5 C5             0.5179    -0.2402    -0.8171 C.2     
   6 C6            -0.9101    -2.1057    -0.6922 C.3     
   7 N7             0.4480    -2.6165    -0.4819 N.am    
   8 C8             1.3550    -1.4670    -0.5615 C.3     
   9 C9            -0.9394     2.8997    -1.4151 C.2     
  10 C10            0.1049     3.7633    -1.4341 C.2     
  11 C11            1.4052     3.2777    -1.2335 C.2     
  12 N12            1.6097     1.9969    -1.0337 N.2     
  13 C13            0.7969    -3.8996    -0.2619 C.2     
  14 C14           -0.2461    -4.9303    -0.0992 C.ar    
  15 O15            1.9714    -4.2077    -0.1976 O.2     
  16 C16           -0.1963    -5.8188     0.9838 C.ar    
  17 C17           -1.1820    -6.7836     1.1268 C.ar    
  18 C18           -2.2074    -6.8675     0.2056 C.ar    
  19 C19           -2.2599    -5.9917    -0.8661 C.ar    
  20 C20           -1.2920    -5.0226    -1.0203 C.ar    
  21 O21            0.8118    -5.7354     1.8877 O.3     
  22 C22           -0.1292     5.2333    -1.6695 C.3     
  23 C23           -2.3458     3.3974    -1.6287 C.3     
  24 C24            0.7966    -6.6743     2.9649 C.3     
  25 C25            2.0021    -6.4270     3.8740 C.3     
  26 N26            1.8665    -5.1151     4.5210 N.3     
  27 C27            0.8779    -5.1631     5.6065 C.3     
  28 C28            3.1646    -4.6337     5.0120 C.3     
  29 H29           -1.5246    -2.3192     0.1823 H       
  30 H30           -1.3477    -2.5722    -1.5748 H       
  31 H31            2.0619    -1.6089    -1.3789 H       
  32 H32            1.8940    -1.3571     0.3795 H       
  33 H33            2.2421     3.9601    -1.2473 H       
  34 H34           -1.1475    -7.4705     1.9595 H       
  35 H35           -2.9727    -7.6207     0.3214 H       
  36 H36           -3.0653    -6.0657    -1.5818 H       
  37 H37           -1.3395    -4.3388    -1.8549 H       
  38 H38           -0.2877     5.7335    -0.7141 H       
  39 H39            0.7402     5.6647    -2.1656 H       
  40 H40           -1.0093     5.3649    -2.2989 H       
  41 H41           -2.7871     3.6628    -0.6680 H       
  42 H42           -2.3264     4.2752    -2.2745 H       
  43 H43           -2.9410     2.6141    -2.0979 H       
  44 H44           -0.1222    -6.5538     3.5389 H       
  45 H45            0.8449    -7.6871     2.5648 H       
  46 H46            2.0481    -7.2049     4.6361 H       
  47 H47            2.9155    -6.4463     3.2795 H       
  48 H48            1.1943    -5.8905     6.3541 H       
  49 H49            0.7973    -4.1791     6.0683 H       
  50 H50           -0.0913    -5.4554     5.2025 H       
  51 H51            3.8304    -4.4583     4.1670 H       
  52 H52            3.0227    -3.7033     5.5619 H       
  53 H53            3.6039    -5.3821     5.6715 H       
@<TRIPOS>BOND
   1    1    5 2
   2    1   12 1
   3    1    2 1
   4    2    3 1
   5    2    9 1
   6    3    4 2
   7    4    6 1
   8    4    5 1
   9    5    8 1
  10    6    7 1
  11    6   29 1
  12    6   30 1
  13    7    8 1
  14    7   13 am
  15    8   31 1
  16    8   32 1
  17    9   10 2
  18    9   23 1
  19   10   11 1
  20   10   22 1
  21   11   12 2
  22   11   33 1
  23   13   14 1
  24   13   15 2
  25   14   16 ar
  26   14   20 ar
  27   16   17 ar
  28   16   21 1
  29   17   18 ar
  30   17   34 1
  31   18   19 ar
  32   18   35 1
  33   19   20 ar
  34   19   36 1
  35   20   37 1
  36   21   24 1
  37   22   38 1
  38   22   39 1
  39   22   40 1
  40   23   41 1
  41   23   42 1
  42   23   43 1
  43   24   25 1
  44   24   44 1
  45   24   45 1
  46   25   26 1
  47   25   46 1
  48   25   47 1
  49   26   27 1
  50   26   28 1
  51   27   48 1
  52   27   49 1
  53   27   50 1
  54   28   51 1
  55   28   52 1
  56   28   53 1

#	End of record

