#	Name: ASD07300678
#	Creating user name:	WinNT
#	Creation time:	15. 06. 2019 21:10

#	Modifying user name:	WinNT
#	Modification time:	15. 06. 2019 21:10

#	Program:	/corina/corina34_cracker 3.40 0067  02.08.2006

@<TRIPOS>MOLECULE
ASD07300678
  38   39    0    0    0
SMALL
NO_CHARGES


@<TRIPOS>ATOM
   1 C1            -0.0168     1.3899     0.0097 C.ar    
   2 C2             0.0021    -0.0041     0.0020 C.ar    
   3 C3             1.2167    -0.6613    -0.0131 C.ar    
   4 C4             2.3889     0.1065    -0.0201 C.ar    
   5 C5             2.2880     1.4961    -0.0117 C.ar    
   6 N6             1.1101     2.0846     0.0027 N.ar    
   7 O7             5.0842     0.0427    -0.0456 O.3     
   8 B8             3.7962    -0.5893    -0.0368 Du      
   9 O9             4.0760    -1.9964    -0.0460 O.3     
  10 C10            5.2106    -2.1490     0.8327 C.3     
  11 C11            5.8942    -0.7665     0.8330 C.3     
  12 C12            7.3209    -0.8770     0.2915 C.3     
  13 C13            5.9027    -0.1762     2.2445 C.3     
  14 C14            4.7466    -2.5145     2.2440 C.3     
  15 C15            6.1648    -3.2153     0.2910 C.3     
  16 F16           -1.1537    -0.7035     0.0097 F       
  17 O17           -1.2045     2.0424     0.0188 O.3     
  18 C18           -1.1600     3.4707     0.0264 C.3     
  19 C19           -2.5859     4.0254     0.0361 C.3     
  20 H20            1.2619    -1.7404    -0.0190 H       
  21 H21            3.1853     2.0970    -0.0170 H       
  22 H22            7.7693     0.1153     0.2438 H       
  23 H23            7.9120    -1.5116     0.9518 H       
  24 H24            7.2977    -1.3136    -0.7070 H       
  25 H25            4.8813    -0.1195     2.6207 H       
  26 H26            6.4968    -0.8123     2.9007 H       
  27 H27            6.3360     0.8236     2.2177 H       
  28 H28            4.2152    -3.4659     2.2168 H       
  29 H29            5.6126    -2.6007     2.9003 H       
  30 H30            4.0813    -1.7375     2.6204 H       
  31 H31            6.4978    -2.9316    -0.7074 H       
  32 H32            7.0277    -3.3000     0.9515 H       
  33 H33            5.6485    -4.1742     0.2430 H       
  34 H34           -0.6309     3.8130     0.9157 H       
  35 H35           -0.6393     3.8227    -0.8642 H       
  36 H36           -2.5519     5.1149     0.0419 H       
  37 H37           -3.1149     3.6831    -0.8533 H       
  38 H38           -3.1066     3.6734     0.9266 H       
@<TRIPOS>BOND
   1    1    2 ar
   2    1    6 ar
   3    1   17 1
   4    2    3 ar
   5    2   16 1
   6    3    4 ar
   7    3   20 1
   8    4    5 ar
   9    4    8 1
  10    5    6 ar
  11    5   21 1
  12    7    8 1
  13    7   11 1
  14    8    9 1
  15    9   10 1
  16   10   11 1
  17   10   14 1
  18   10   15 1
  19   11   12 1
  20   11   13 1
  21   12   22 1
  22   12   23 1
  23   12   24 1
  24   13   25 1
  25   13   26 1
  26   13   27 1
  27   14   28 1
  28   14   29 1
  29   14   30 1
  30   15   31 1
  31   15   32 1
  32   15   33 1
  33   17   18 1
  34   18   19 1
  35   18   34 1
  36   18   35 1
  37   19   36 1
  38   19   37 1
  39   19   38 1

#	End of record

