#	Name: ASD08150936
#	Creating user name:	WinNT
#	Creation time:	15. 06. 2019 21:16

#	Modifying user name:	WinNT
#	Modification time:	15. 06. 2019 21:16

#	Program:	/corina/corina34_cracker 3.40 0067  02.08.2006

@<TRIPOS>MOLECULE
ASD08150936
  55   59    0    0    0
SMALL
NO_CHARGES


@<TRIPOS>ATOM
   1 C1             4.6005     1.5713    -2.2553 C.3     
   2 O2             5.8481     0.9265    -2.5193 O.3     
   3 N3             3.1721     3.1141     0.9034 N.3     
   4 C4             3.2508     2.7593    -0.5194 C.3     
   5 C5             4.5298     1.9594    -0.7770 C.3     
   6 C6             4.5164     0.6933     0.0839 C.3     
   7 C7             4.3850     1.0888     1.5573 C.3     
   8 C8             3.1102     1.9139     1.7473 C.3     
   9 N9             0.5410     2.3031     0.3711 N.ar    
  10 C10           -0.6767     1.8930     0.1113 C.ar    
  11 C11           -1.7871     2.7023     0.3422 C.ar    
  12 C12           -1.6207     3.9581     0.8525 C.ar    
  13 C13           -0.3114     4.3943     1.1304 C.ar    
  14 C14           -0.0643     5.6733     1.6569 C.ar    
  15 C15            1.2150     6.0658     1.9157 C.ar    
  16 C16            2.2886     5.2163     1.6661 C.ar    
  17 C17            2.0864     3.9550     1.1497 C.ar    
  18 C18            0.7723     3.5199     0.8712 C.ar    
  19 C19            3.6906     5.6824     1.9634 C.3     
  20 C20            4.3552     6.1573     0.6698 C.3     
  21 N21            3.6444     6.7882     2.9232 N.pl3   
  22 N22            3.5465     8.9247     5.1315 N.2     
  23 C23            3.5070     9.4332     6.3288 C.2     
  24 N24            3.5051     8.4361     7.2584 N.pl3   
  25 C25            3.5463     7.2432     6.5821 C.ar    
  26 N26            3.5639     5.9629     6.9378 N.ar    
  27 C27            3.6053     5.0138     6.0264 C.ar    
  28 N28            3.6319     5.2746     4.7322 N.ar    
  29 C29            3.6169     6.5248     4.2815 C.ar    
  30 C30            3.5725     7.5729     5.2163 C.ar    
  31 Cl31          -1.3863     6.7521     1.9767 Cl      
  32 H32            4.5171     2.4671    -2.8705 H       
  33 H33            3.7826     0.8907    -2.4917 H       
  34 H34            5.9621     0.6522    -3.4396 H       
  35 H35            2.3845     2.1566    -0.7918 H       
  36 H36            3.2639     3.6686    -1.1202 H       
  37 H37            5.3972     2.5668    -0.5184 H       
  38 H38            3.6710     0.0674    -0.2020 H       
  39 H39            5.4452     0.1423    -0.0639 H       
  40 H40            4.3319     0.1902     2.1720 H       
  41 H41            5.2501     1.6822     1.8533 H       
  42 H42            3.0212     2.2092     2.7928 H       
  43 H43            2.2445     1.3151     1.4642 H       
  44 H44           -0.8230     0.9021    -0.2926 H       
  45 H45           -2.7783     2.3370     0.1175 H       
  46 H46           -2.4701     4.5990     1.0374 H       
  47 H47            1.3981     7.0502     2.3203 H       
  48 H48            4.2655     4.8583     2.3860 H       
  49 H49            5.3501     6.5430     0.8927 H       
  50 H50            4.4369     5.3213    -0.0249 H       
  51 H51            3.7523     6.9460     0.2198 H       
  52 H52            3.6330     7.7050     2.6066 H       
  53 H53            3.4802    10.4894     6.5529 H       
  54 H54            3.4797     8.5494     8.2214 H       
  55 H55            3.6185     3.9833     6.3493 H       
@<TRIPOS>BOND
   1    1    2 1
   2    1    5 1
   3    1   32 1
   4    1   33 1
   5    2   34 1
   6    3    4 1
   7    3    8 1
   8    3   17 1
   9    4    5 1
  10    4   35 1
  11    4   36 1
  12    5    6 1
  13    5   37 1
  14    6    7 1
  15    6   38 1
  16    6   39 1
  17    7    8 1
  18    7   40 1
  19    7   41 1
  20    8   42 1
  21    8   43 1
  22    9   10 ar
  23    9   18 ar
  24   10   11 ar
  25   10   44 1
  26   11   12 ar
  27   11   45 1
  28   12   13 ar
  29   12   46 1
  30   13   14 ar
  31   13   18 ar
  32   14   15 ar
  33   14   31 1
  34   15   16 ar
  35   15   47 1
  36   16   17 ar
  37   16   19 1
  38   17   18 ar
  39   19   20 1
  40   19   21 1
  41   19   48 1
  42   20   49 1
  43   20   50 1
  44   20   51 1
  45   21   29 1
  46   21   52 1
  47   22   23 2
  48   22   30 1
  49   23   24 1
  50   23   53 1
  51   24   25 1
  52   24   54 1
  53   25   26 ar
  54   25   30 ar
  55   26   27 ar
  56   27   28 ar
  57   27   55 1
  58   28   29 ar
  59   29   30 ar

#	End of record

