#	Name: ASD01881843
#	Creating user name:	WinNT
#	Creation time:	15. 06. 2019 19:43

#	Modifying user name:	WinNT
#	Modification time:	15. 06. 2019 19:43

#	Program:	/corina/corina34_cracker 3.40 0067  02.08.2006

@<TRIPOS>MOLECULE
ASD01881843
  38   41    0    0    0
SMALL
NO_CHARGES


@<TRIPOS>ATOM
   1 O1            -0.0161     1.3364     0.0094 O.3     
   2 C2             0.0021    -0.0041     0.0020 C.2     
   3 C3             1.3347    -0.4961    -0.5197 C.3     
   4 C4             2.1566     0.7866    -0.7764 C.3     
   5 C5             1.3482     1.8516    -0.0009 C.3     
   6 O6            -0.9088    -0.7131     0.3591 O.2     
   7 C7             1.4054     3.1981    -0.7252 C.3     
   8 O8             0.6812     4.1743     0.0261 O.3     
   9 N9             0.3373     9.3252    -1.8054 N.pl3   
  10 N10           -0.4377     9.8152    -0.7438 N.2     
  11 N11           -0.6720     8.8640     0.0899 N.2     
  12 C12           -0.0981     7.7195    -0.3317 C.ar    
  13 C13            0.5554     7.9912    -1.5462 C.ar    
  14 C14           -0.0504     6.4217     0.1958 C.ar    
  15 C15            0.6335     5.4344    -0.4830 C.ar    
  16 C16            1.2758     5.7189    -1.6856 C.ar    
  17 C17            1.2391     6.9797    -2.2112 C.ar    
  18 C18            0.8150    10.0826    -2.9649 C.3     
  19 C19            2.1840    10.6887    -2.6493 C.3     
  20 C20            2.9087    11.4233    -3.7789 C.3     
  21 C21            2.2920    12.2146    -2.6237 C.3     
  22 Br22          -0.9193     6.0262     1.8281 Br      
  23 H23            1.8274    -1.1195     0.2264 H       
  24 H24            1.1973    -1.0508    -1.4479 H       
  25 H25            3.1632     0.6907    -0.3693 H       
  26 H26            2.1876     1.0214    -1.8404 H       
  27 H27            1.7258     1.9495     1.0169 H       
  28 H28            2.4441     3.5133    -0.8246 H       
  29 H29            0.9600     3.0974    -1.7149 H       
  30 H30            1.8080     4.9368    -2.2066 H       
  31 H31            1.7406     7.1903    -3.1443 H       
  32 H32            0.9018     9.4165    -3.8233 H       
  33 H33            0.1085    10.8804    -3.1939 H       
  34 H34            2.7939    10.1287    -1.9404 H       
  35 H35            3.9955    11.3469    -3.8130 H       
  36 H36            2.4103    11.4748    -4.7469 H       
  37 H37            1.3879    12.7868    -2.8318 H       
  38 H38            2.9731    12.6589    -1.8979 H       
@<TRIPOS>BOND
   1    1    2 1
   2    1    5 1
   3    2    3 1
   4    2    6 2
   5    3    4 1
   6    3   23 1
   7    3   24 1
   8    4    5 1
   9    4   25 1
  10    4   26 1
  11    5    7 1
  12    5   27 1
  13    7    8 1
  14    7   28 1
  15    7   29 1
  16    8   15 1
  17    9   10 1
  18    9   13 1
  19    9   18 1
  20   10   11 2
  21   11   12 1
  22   12   13 ar
  23   12   14 ar
  24   13   17 ar
  25   14   15 ar
  26   14   22 1
  27   15   16 ar
  28   16   17 ar
  29   16   30 1
  30   17   31 1
  31   18   19 1
  32   18   32 1
  33   18   33 1
  34   19   20 1
  35   19   21 1
  36   19   34 1
  37   20   21 1
  38   20   35 1
  39   20   36 1
  40   21   37 1
  41   21   38 1

#	End of record

