#	Name: ASD01910598
#	Creating user name:	WinNT
#	Creation time:	15. 06. 2019 19:56

#	Modifying user name:	WinNT
#	Modification time:	15. 06. 2019 19:56

#	Program:	/corina/corina34_cracker 3.40 0067  02.08.2006

@<TRIPOS>MOLECULE
ASD01910598
  43   46    0    0    0
SMALL
NO_CHARGES


@<TRIPOS>ATOM
   1 C1             0.0269     1.2369    -0.0562 C.ar    
   2 N2             0.0583    -0.0814    -0.0644 N.ar    
   3 C3             1.1923    -0.7546    -0.0704 C.ar    
   4 C4             2.4065    -0.0979    -0.0678 C.ar    
   5 C5             2.4209     1.3011    -0.0591 C.ar    
   6 C6             1.1942     1.9738    -0.0534 C.ar    
   7 C7             3.6980     2.0484    -0.0555 C.2     
   8 N8             3.8436     3.3606    -0.0475 N.2     
   9 C9             5.1684     3.5758    -0.0472 C.2     
  10 N10            5.7555     2.4155    -0.0549 N.2     
  11 O11            4.9330     1.5241    -0.0539 O.3     
  12 C12            5.8517     4.9189    -0.0394 C.3     
  13 C13            6.7273     5.0393     1.2100 C.3     
  14 C14            7.3961     6.4156     1.2356 C.3     
  15 C15            8.2911     6.5670     0.0016 C.3     
  16 N16            7.4866     6.3094    -1.2006 N.am    
  17 C17            6.7292     5.0534    -1.2879 C.3     
  18 C18            7.4442     7.2080    -2.2041 C.2     
  19 C19            8.1343     8.5048    -2.0630 C.ar    
  20 O20            6.8374     6.9503    -3.2257 O.2     
  21 C21            9.4948     8.5448    -1.7485 C.ar    
  22 C22           10.1343     9.7582    -1.6183 C.ar    
  23 C23            9.4311    10.9403    -1.7987 C.ar    
  24 C24            8.0817    10.9098    -2.1108 C.ar    
  25 C25            7.4299     9.6995    -2.2493 C.ar    
  26 F26           10.0648    12.1263    -1.6690 F       
  27 F27            6.1141     9.6697    -2.5541 F       
  28 H28           -0.9250     1.7470    -0.0560 H       
  29 H29            1.1707    -1.8343    -0.0771 H       
  30 H30            3.3313    -0.6556    -0.0720 H       
  31 H31            1.1610     3.0532    -0.0470 H       
  32 H32            5.1009     5.7091    -0.0351 H       
  33 H33            6.1090     4.9194     2.0996 H       
  34 H34            7.4930     4.2638     1.1929 H       
  35 H35            6.6311     7.1920     1.2277 H       
  36 H36            8.0010     6.5094     2.1375 H       
  37 H37            8.6918     7.5800    -0.0371 H       
  38 H38            9.1101     5.8496     0.0539 H       
  39 H39            7.4208     4.2126    -1.3408 H       
  40 H40            6.0994     5.0676    -2.1774 H       
  41 H41           10.0444     7.6259    -1.6072 H       
  42 H42           11.1860     9.7892    -1.3748 H       
  43 H43            7.5393    11.8333    -2.2497 H       
@<TRIPOS>BOND
   1    1    2 ar
   2    1    6 ar
   3    1   28 1
   4    2    3 ar
   5    3    4 ar
   6    3   29 1
   7    4    5 ar
   8    4   30 1
   9    5    6 ar
  10    5    7 1
  11    6   31 1
  12    7    8 2
  13    7   11 1
  14    8    9 1
  15    9   10 2
  16    9   12 1
  17   10   11 1
  18   12   13 1
  19   12   17 1
  20   12   32 1
  21   13   14 1
  22   13   33 1
  23   13   34 1
  24   14   15 1
  25   14   35 1
  26   14   36 1
  27   15   16 1
  28   15   37 1
  29   15   38 1
  30   16   17 1
  31   16   18 am
  32   17   39 1
  33   17   40 1
  34   18   19 1
  35   18   20 2
  36   19   21 ar
  37   19   25 ar
  38   21   22 ar
  39   21   41 1
  40   22   23 ar
  41   22   42 1
  42   23   24 ar
  43   23   26 1
  44   24   25 ar
  45   24   43 1
  46   25   27 1

#	End of record

