#	Name: ASD08150991
#	Creating user name:	WinNT
#	Creation time:	15. 06. 2019 21:16

#	Modifying user name:	WinNT
#	Modification time:	15. 06. 2019 21:16

#	Program:	/corina/corina34_cracker 3.40 0067  02.08.2006

@<TRIPOS>MOLECULE
ASD08150991
  20   21    0    0    0
SMALL
NO_CHARGES


@<TRIPOS>ATOM
   1 S1            -0.0211     1.7022     0.0114 S.3     
   2 C2             0.0021    -0.0041     0.0020 C.2     
   3 N3             1.1982    -0.4572    -0.0118 N.2     
   4 C4             2.2083     0.4336    -0.0167 C.ar    
   5 C5             1.7392     1.7517    -0.0051 C.ar    
   6 C6             3.6012     0.2145    -0.0308 C.ar    
   7 C7             4.4695     1.2781    -0.0330 C.ar    
   8 C8             3.9915     2.5807    -0.0214 C.ar    
   9 C9             2.6356     2.8181    -0.0080 C.ar    
  10 C10           -1.2321    -0.8688     0.0096 C.3     
  11 C11            5.9556     1.0284    -0.0475 C.3     
  12 Br12           6.5852     0.9296    -1.9074 Br      
  13 Br13           4.2764    -1.5518    -0.0461 Br      
  14 H14            4.6841     3.4094    -0.0232 H       
  15 H15            2.2661     3.8328     0.0010 H       
  16 H16           -2.1193    -0.2356     0.0214 H       
  17 H17           -1.2435    -1.4936    -0.8834 H       
  18 H18           -1.2263    -1.5025     0.8964 H       
  19 H19            6.4659     1.8432     0.4660 H       
  20 H20            6.1710     0.0879     0.4594 H       
@<TRIPOS>BOND
   1    1    2 1
   2    1    5 1
   3    2    3 2
   4    2   10 1
   5    3    4 1
   6    4    5 ar
   7    4    6 ar
   8    5    9 ar
   9    6    7 ar
  10    6   13 1
  11    7    8 ar
  12    7   11 1
  13    8    9 ar
  14    8   14 1
  15    9   15 1
  16   10   16 1
  17   10   17 1
  18   10   18 1
  19   11   12 1
  20   11   19 1
  21   11   20 1

#	End of record

