#	Name: ASD00311283
#	Creating user name:	WinNT
#	Creation time:	15. 06. 2019 18:34

#	Modifying user name:	WinNT
#	Modification time:	15. 06. 2019 18:34

#	Program:	/corina/corina34_cracker 3.40 0067  02.08.2006

@<TRIPOS>MOLECULE
ASD00311283
  38   41    0    0    0
SMALL
NO_CHARGES


@<TRIPOS>ATOM
   1 C1            -0.0167     1.3778     0.0096 C.2     
   2 C2             0.0021    -0.0041     0.0020 C.2     
   3 C3             1.2591    -0.6766    -0.0136 C.2     
   4 C4             2.4313     0.0672    -0.0208 C.2     
   5 C5             2.3574     1.4749    -0.0125 C.2     
   6 N6             1.1650     2.0903     0.0022 N.am    
   7 C7            -1.3430    -0.5749     0.0118 C.2     
   8 C8            -2.3222     0.3255     0.0260 C.2     
   9 S9            -1.6794     1.9559     0.0358 S.3     
  10 O10            3.3825     2.1369    -0.0183 O.2     
  11 C11            3.7480    -0.6124    -0.0365 C.ar    
  12 C12            4.5928    -0.4742    -1.1375 C.ar    
  13 C13            5.8176    -1.1082    -1.1487 C.ar    
  14 C14            6.2096    -1.8835    -0.0661 C.ar    
  15 C15            5.3714    -2.0232     1.0314 C.ar    
  16 C16            4.1477    -1.3870     1.0521 C.ar    
  17 O17            7.4171    -2.5076    -0.0809 O.3     
  18 C18           -1.5954    -2.0357     0.0059 C.ar    
  19 C19           -2.4696    -2.5975     0.9355 C.ar    
  20 C20           -2.7026    -3.9569     0.9269 C.ar    
  21 C21           -2.0675    -4.7656    -0.0055 C.ar    
  22 C22           -1.1965    -4.2096    -0.9324 C.ar    
  23 C23           -0.9635    -2.8502    -0.9330 C.ar    
  24 O24           -2.2985    -6.1050    -0.0106 O.3     
  25 O25            1.3092    -2.0293    -0.0209 O.3     
  26 H26            1.1329     3.0598     0.0073 H       
  27 H27           -3.3747     0.0835     0.0347 H       
  28 H28            4.2881     0.1283    -1.9805 H       
  29 H29            6.4724    -1.0017    -2.0010 H       
  30 H30            5.6795    -2.6275     1.8718 H       
  31 H31            3.4979    -1.4926     1.9083 H       
  32 H32            8.1377    -1.9790     0.2883 H       
  33 H33           -2.9636    -1.9689     1.6617 H       
  34 H34           -3.3796    -4.3927     1.6467 H       
  35 H35           -0.7037    -4.8417    -1.6562 H       
  36 H36           -0.2889    -2.4177    -1.6571 H       
  37 H37           -3.0379    -6.3745    -0.5726 H       
  38 H38            2.2066    -2.3896    -0.0314 H       
@<TRIPOS>BOND
   1    1    2 2
   2    1    6 1
   3    1    9 1
   4    2    3 1
   5    2    7 1
   6    3    4 2
   7    3   25 1
   8    4    5 1
   9    4   11 1
  10    5    6 am
  11    5   10 2
  12    6   26 1
  13    7    8 2
  14    7   18 1
  15    8    9 1
  16    8   27 1
  17   11   12 ar
  18   11   16 ar
  19   12   13 ar
  20   12   28 1
  21   13   14 ar
  22   13   29 1
  23   14   15 ar
  24   14   17 1
  25   15   16 ar
  26   15   30 1
  27   16   31 1
  28   17   32 1
  29   18   19 ar
  30   18   23 ar
  31   19   20 ar
  32   19   33 1
  33   20   21 ar
  34   20   34 1
  35   21   22 ar
  36   21   24 1
  37   22   23 ar
  38   22   35 1
  39   23   36 1
  40   24   37 1
  41   25   38 1

#	End of record

