#	Name: ASD01917023
#	Creating user name:	WinNT
#	Creation time:	15. 06. 2019 20:08

#	Modifying user name:	WinNT
#	Modification time:	15. 06. 2019 20:08

#	Program:	/corina/corina34_cracker 3.40 0067  02.08.2006

@<TRIPOS>MOLECULE
ASD01917023
  32   34    0    0    0
SMALL
NO_CHARGES


@<TRIPOS>ATOM
   1 C1            -0.0180     1.4757     0.0102 C.ar    
   2 C2             0.0021    -0.0041     0.0020 C.2     
   3 N3             1.0772    -0.7630    -0.0119 N.2     
   4 C4             0.7196    -2.0517    -0.0147 C.2     
   5 N5            -0.5936    -2.1309    -0.0027 N.2     
   6 N6            -1.0819    -0.8143     0.0135 N.pl3   
   7 C7             1.6530    -3.2056    -0.0296 C.ar    
   8 C8             3.0295    -2.9906    -0.0421 C.ar    
   9 C9            -1.2337     2.1595     0.0312 C.ar    
  10 C10            1.1554    -4.5063    -0.0254 C.ar    
  11 C11            2.0315    -5.5790    -0.0394 C.ar    
  12 C12            3.4016    -5.3563    -0.0576 C.ar    
  13 C13            3.8959    -4.0656    -0.0560 C.ar    
  14 O14            1.5497    -6.8498    -0.0349 O.3     
  15 C15            2.5102    -7.9078    -0.0501 C.3     
  16 C16            1.1787     2.1924     0.0026 C.ar    
  17 C17            1.1534     3.5719     0.0102 C.ar    
  18 C18           -0.0555     4.2444     0.0257 C.ar    
  19 C19           -1.2457     3.5392     0.0387 C.ar    
  20 H20           -2.0122    -0.5399     0.0249 H       
  21 H21            3.4188    -1.9832    -0.0413 H       
  22 H22           -2.1634     1.6101     0.0414 H       
  23 H23            0.0892    -4.6781    -0.0109 H       
  24 H24            4.0833    -6.1939    -0.0682 H       
  25 H25            4.9626    -3.8974    -0.0702 H       
  26 H26            3.1471    -7.8329     0.8313 H       
  27 H27            1.9936    -8.8676    -0.0446 H       
  28 H28            3.1224    -7.8299    -0.9485 H       
  29 H29            2.1231     1.6686    -0.0089 H       
  30 H30            2.0792     4.1280     0.0043 H       
  31 H31           -0.0702     5.3242     0.0320 H       
  32 H32           -2.1863     4.0698     0.0508 H       
@<TRIPOS>BOND
   1    1    2 1
   2    1   16 ar
   3    1    9 ar
   4    2    3 2
   5    2    6 1
   6    3    4 1
   7    4    5 2
   8    4    7 1
   9    5    6 1
  10    6   20 1
  11    7    8 ar
  12    7   10 ar
  13    8   13 ar
  14    8   21 1
  15    9   19 ar
  16    9   22 1
  17   10   11 ar
  18   10   23 1
  19   11   12 ar
  20   11   14 1
  21   12   13 ar
  22   12   24 1
  23   13   25 1
  24   14   15 1
  25   15   26 1
  26   15   27 1
  27   15   28 1
  28   16   17 ar
  29   16   29 1
  30   17   18 ar
  31   17   30 1
  32   18   19 ar
  33   18   31 1
  34   19   32 1

#	End of record

