#	Name: ASD05143111
#	Creating user name:	WinNT
#	Creation time:	15. 06. 2019 20:57

#	Modifying user name:	WinNT
#	Modification time:	15. 06. 2019 20:57

#	Program:	/corina/corina34_cracker 3.40 0067  02.08.2006

@<TRIPOS>MOLECULE
ASD05143111
 153  156    0    0    0
SMALL
NO_CHARGES


@<TRIPOS>ATOM
   1 C1            -2.1132     5.3887     7.5267 C.2     
   2 C2            -1.6287     4.6496     8.7474 C.3     
   3 N3            -1.2247     5.9255     6.6671 N.am    
   4 O4            -3.3026     5.4960     7.3151 O.2     
   5 C5            -1.6956     6.6440     5.4804 C.3     
   6 C6            -2.5282     5.7005     4.6100 C.3     
   7 C7            -2.5439     7.8147     5.9057 C.2     
   8 C8            -1.6356     4.5783     4.0762 C.3     
   9 C9            -2.4681     3.6348     3.2058 C.3     
  10 N10           -1.6135     2.5604     2.6946 N.pl3   
  11 C11           -2.1452     1.5862     1.8831 C.2     
  12 N12           -1.3432     0.5778     1.4034 N.pl3   
  13 N13           -3.4097     1.6185     1.5687 N.2     
  14 O14           -3.0376     7.8352     7.0133 O.2     
  15 N15           -2.7538     8.8390     5.0552 N.am    
  16 C16           -3.5784     9.9771     5.4687 C.3     
  17 C17           -2.6760    11.1680     5.7974 C.3     
  18 C18           -1.5206    10.7034     6.6860 C.3     
  19 C19           -0.3787    10.2344     5.8218 C.2     
  20 N20            0.8881    10.6469     6.1250 N.am    
  21 C21            1.9523    10.1361     5.2310 C.3     
  22 C22            2.1034    11.0972     4.0502 C.3     
  23 C23            2.7680    10.3674     2.8811 C.3     
  24 C24            3.7269    11.3194     2.1635 C.3     
  25 N25            3.6767    11.0430     0.7138 N.am    
  26 C26            5.1290    11.1012     2.6710 C.2     
  27 N27            5.5155    11.6491     3.8401 N.am    
  28 O28            5.9097    10.4324     2.0273 O.2     
  29 C29            2.8511    11.8313    -0.0273 C.2     
  30 O30            2.2066    12.7127     0.5005 O.2     
  31 C31            2.7483    11.5954    -1.5122 C.3     
  32 N32            1.5339    12.2782    -2.0148 N.am    
  33 C33            3.9846    12.1661    -2.2100 C.3     
  34 C34            0.4812    11.4586    -2.3092 C.2     
  35 O35            0.5729    10.2582    -2.1625 O.2     
  36 C36           -0.7962    12.0745    -2.8192 C.3     
  37 N37           -1.9231    11.1811    -2.4848 N.am    
  38 C38           -1.0084    13.4373    -2.1569 C.3     
  39 C39           -3.0283    11.7689    -1.9493 C.2     
  40 O40           -3.0582    12.9667    -1.7615 O.2     
  41 C41           -4.2142    10.9097    -1.5939 C.3     
  42 C42            3.9378    11.8213    -3.6762 C.2     
  43 C43            3.2404    12.5688    -4.7254 C.ar    
  44 C44            3.4795    11.8718    -5.9236 C.ar    
  45 N45            4.2645    10.7846    -5.6115 N.pl3   
  46 C46            4.5322    10.7741    -4.2696 C.2     
  47 C47            2.4634    13.7289    -4.7372 C.ar    
  48 C48            1.9386    14.1817    -5.9146 C.ar    
  49 C49            2.1713    13.4972    -7.0998 C.ar    
  50 C50            2.9355    12.3512    -7.1110 C.ar    
  51 N51           -4.8012    11.4104    -0.3300 N.am    
  52 C52           -3.7611     9.4599    -1.4104 C.3     
  53 C53           -4.9596     8.5907    -1.1293 C.ar    
  54 C54           -5.9880     8.5134    -2.0491 C.ar    
  55 C55           -7.0882     7.7149    -1.7910 C.ar    
  56 C56           -7.1580     6.9945    -0.6122 C.ar    
  57 C57           -6.1287     7.0726     0.3072 C.ar    
  58 C58           -5.0275     7.8663     0.0465 C.ar    
  59 C59           -4.5158    10.3513     4.3494 C.2     
  60 O60           -5.7142    10.2192     4.4805 O.2     
  61 C61           -1.0197    13.2691    -0.6362 C.3     
  62 C62           -1.3784    14.6029     0.0219 C.3     
  63 N63           -1.3892    14.4418     1.4779 N.pl3   
  64 C64           -1.6873    15.5135     2.2859 C.2     
  65 N65           -1.6975    15.3623     3.6524 N.pl3   
  66 N66           -1.9602    16.6728     1.7565 N.2     
  67 N67           -3.9979    10.8393     3.1888 N.am    
  68 C68           -4.9647    11.1889     2.1290 C.3     
  69 C69           -4.4088    10.7490     0.7992 C.2     
  70 O70           -3.6271     9.8241     0.7325 O.2     
  71 C71           -5.1866    12.7027     2.1165 C.3     
  72 C72           -5.8511    13.1316     3.4262 C.3     
  73 C73           -6.0730    14.6453     3.4137 C.3     
  74 Cl74          -8.3807     7.6177    -2.9459 Cl      
  75 N75           -6.7092    15.0560     4.6678 N.pl3   
  76 C76           -7.0081    16.3802     4.8856 C.2     
  77 N77           -6.7099    17.3190     3.9264 N.pl3   
  78 N78           -7.5742    16.7455     6.0014 N.2     
  79 O79           -0.5803     9.5040     4.8749 O.2     
  80 H80           -1.5237     5.3484     9.5773 H       
  81 H81           -2.3487     3.8756     9.0131 H       
  82 H82           -0.6633     4.1903     8.5347 H       
  83 H83           -0.2733     5.8362     6.8343 H       
  84 H84           -0.8394     7.0039     4.9100 H       
  85 H85           -3.3334     5.2716     5.2065 H       
  86 H86           -2.9520     6.2566     3.7739 H       
  87 H87           -0.8304     5.0072     3.4797 H       
  88 H88           -1.2118     4.0222     4.9123 H       
  89 H89           -3.2734     3.2059     3.8022 H       
  90 H90           -2.8919     4.1910     2.3696 H       
  91 H91           -0.6724     2.5363     2.9286 H       
  92 H92           -0.4021     0.5538     1.6374 H       
  93 H93           -1.7183    -0.1095     0.8309 H       
  94 H94           -3.7849     0.9312     0.9962 H       
  95 H95           -2.3590     8.8225     4.1694 H       
  96 H96           -4.1569     9.7050     6.3515 H       
  97 H97           -2.2777    11.5878     4.8736 H       
  98 H98           -3.2547    11.9284     6.3219 H       
  99 H99           -1.1869    11.5319     7.3108 H       
 100 H100          -1.8571     9.8830     7.3200 H       
 101 H101           1.0772    11.2339     6.8737 H       
 102 H102           2.8931    10.0784     5.7783 H       
 103 H103           1.6784     9.1468     4.8645 H       
 104 H104           1.1201    11.4541     3.7440 H       
 105 H105           2.7211    11.9445     4.3480 H       
 106 H106           3.3231     9.5082     3.2576 H       
 107 H107           2.0030    10.0278     2.1828 H       
 108 H108           3.4255    12.3503     2.3495 H       
 109 H109           4.2045    10.3360     0.3107 H       
 110 H110           4.8912    12.1840     4.3549 H       
 111 H111           6.4180    11.5086     4.1668 H       
 112 H112           2.6746    10.5258    -1.7087 H       
 113 H113           1.4892    13.2406    -2.1274 H       
 114 H114           4.0008    13.2495    -2.0918 H       
 115 H115           4.8829    11.7385    -1.7646 H       
 116 H116          -0.7360    12.1974    -3.9006 H       
 117 H117          -1.8783    10.2244    -2.6383 H       
 118 H118          -0.1993    14.1098    -2.4420 H       
 119 H119          -1.9605    13.8556    -2.4832 H       
 120 H120          -4.9574    10.9650    -2.3894 H       
 121 H121           4.5834    10.1263    -6.2485 H       
 122 H122           5.1271    10.0293    -3.7619 H       
 123 H123           2.2777    14.2662    -3.8189 H       
 124 H124           1.3377    15.0790    -5.9233 H       
 125 H125           1.7493    13.8673    -8.0225 H       
 126 H126           3.1110    11.8260    -8.0383 H       
 127 H127          -5.4209    12.1562    -0.3055 H       
 128 H128          -3.2678     9.1156    -2.3194 H       
 129 H129          -3.0646     9.4000    -0.5741 H       
 130 H130          -5.9331     9.0764    -2.9692 H       
 131 H131          -8.0166     6.3714    -0.4100 H       
 132 H132          -6.1830     6.5102     1.2276 H       
 133 H133          -4.2234     7.9268     0.7649 H       
 134 H134          -1.7585    12.5170    -0.3593 H       
 135 H135          -0.0333    12.9509    -0.2985 H       
 136 H136          -0.6395    15.3550    -0.2550 H       
 137 H137          -2.3647    14.9210    -0.3158 H       
 138 H138          -1.1861    13.5790     1.8719 H       
 139 H139          -1.4944    14.4995     4.0464 H       
 140 H140          -1.9077    16.1184     4.2225 H       
 141 H141          -2.1705    17.4289     2.3266 H       
 142 H142          -3.0425    10.9519     3.0646 H       
 143 H143          -5.9108    10.6807     2.3155 H       
 144 H144          -4.2273    13.2097     2.0127 H       
 145 H145          -5.8307    12.9686     1.2782 H       
 146 H146          -6.8104    12.6246     3.5300 H       
 147 H147          -5.2071    12.8657     4.2644 H       
 148 H148          -5.1137    15.1523     3.3099 H       
 149 H149          -6.7170    14.9112     2.5755 H       
 150 H150          -6.9196    14.3937     5.3445 H       
 151 H151          -6.2887    17.0471     3.0961 H       
 152 H152          -6.9208    18.2532     4.0801 H       
 153 H153          -7.7851    17.6798     6.1550 H       
@<TRIPOS>BOND
   1    1    2 1
   2    1    3 am
   3    1    4 2
   4    2   80 1
   5    2   81 1
   6    2   82 1
   7    3    5 1
   8    3   83 1
   9    5    6 1
  10    5    7 1
  11    5   84 1
  12    6    8 1
  13    6   85 1
  14    6   86 1
  15    7   14 2
  16    7   15 am
  17    8    9 1
  18    8   87 1
  19    8   88 1
  20    9   10 1
  21    9   89 1
  22    9   90 1
  23   10   11 1
  24   10   91 1
  25   11   12 1
  26   11   13 2
  27   12   92 1
  28   12   93 1
  29   13   94 1
  30   15   16 1
  31   15   95 1
  32   16   17 1
  33   16   59 1
  34   16   96 1
  35   17   18 1
  36   17   97 1
  37   17   98 1
  38   18   19 1
  39   18   99 1
  40   18  100 1
  41   19   20 am
  42   19   79 2
  43   20   21 1
  44   20  101 1
  45   21   22 1
  46   21  102 1
  47   21  103 1
  48   22   23 1
  49   22  104 1
  50   22  105 1
  51   23   24 1
  52   23  106 1
  53   23  107 1
  54   24   25 1
  55   24   26 1
  56   24  108 1
  57   25   29 am
  58   25  109 1
  59   26   27 am
  60   26   28 2
  61   27  110 1
  62   27  111 1
  63   29   30 2
  64   29   31 1
  65   31   32 1
  66   31   33 1
  67   31  112 1
  68   32   34 am
  69   32  113 1
  70   33   42 1
  71   33  114 1
  72   33  115 1
  73   34   35 2
  74   34   36 1
  75   36   37 1
  76   36   38 1
  77   36  116 1
  78   37   39 am
  79   37  117 1
  80   38   61 1
  81   38  118 1
  82   38  119 1
  83   39   40 2
  84   39   41 1
  85   41   51 1
  86   41   52 1
  87   41  120 1
  88   42   43 1
  89   42   46 2
  90   43   44 ar
  91   43   47 ar
  92   44   45 1
  93   44   50 ar
  94   45   46 1
  95   45  121 1
  96   46  122 1
  97   47   48 ar
  98   47  123 1
  99   48   49 ar
 100   48  124 1
 101   49   50 ar
 102   49  125 1
 103   50  126 1
 104   51   69 am
 105   51  127 1
 106   52   53 1
 107   52  128 1
 108   52  129 1
 109   53   54 ar
 110   53   58 ar
 111   54   55 ar
 112   54  130 1
 113   55   56 ar
 114   55   74 1
 115   56   57 ar
 116   56  131 1
 117   57   58 ar
 118   57  132 1
 119   58  133 1
 120   59   60 2
 121   59   67 am
 122   61   62 1
 123   61  134 1
 124   61  135 1
 125   62   63 1
 126   62  136 1
 127   62  137 1
 128   63   64 1
 129   63  138 1
 130   64   65 1
 131   64   66 2
 132   65  139 1
 133   65  140 1
 134   66  141 1
 135   67   68 1
 136   67  142 1
 137   68   69 1
 138   68   71 1
 139   68  143 1
 140   69   70 2
 141   71   72 1
 142   71  144 1
 143   71  145 1
 144   72   73 1
 145   72  146 1
 146   72  147 1
 147   73   75 1
 148   73  148 1
 149   73  149 1
 150   75   76 1
 151   75  150 1
 152   76   77 1
 153   76   78 2
 154   77  151 1
 155   77  152 1
 156   78  153 1

#	End of record

