#	Name: ASD03430944
#	Creating user name:	WinNT
#	Creation time:	15. 06. 2019 20:41

#	Modifying user name:	WinNT
#	Modification time:	15. 06. 2019 20:41

#	Program:	/corina/corina34_cracker 3.40 0067  02.08.2006

@<TRIPOS>MOLECULE
ASD03430944
  48   53    0    0    0
SMALL
NO_CHARGES


@<TRIPOS>ATOM
   1 O1             0.1459     1.7754    -0.1374 O.3     
   2 C2             0.0772     0.3372    -0.1355 C.3     
   3 O3             1.2964    -0.0649    -0.7870 O.3     
   4 C4             2.1857     0.9449    -0.5539 C.ar    
   5 C5             1.4777     2.0765    -0.1556 C.ar    
   6 C6             3.5649     0.9903    -0.6502 C.ar    
   7 C7             4.2542     2.1622    -0.3530 C.ar    
   8 C8             3.5354     3.2885     0.0358 C.ar    
   9 C9             2.1606     3.2445     0.1388 C.ar    
  10 O10            5.5948     2.4123    -0.3670 O.3     
  11 C11            4.5428     4.3851     0.2559 C.3     
  12 C12            5.8121     3.8358    -0.4093 C.3     
  13 N13            4.0814     6.5895     0.6456 N.am    
  14 C14            4.1089     5.6864    -0.3548 C.2     
  15 C15            4.7562     4.6801     1.7110 C.ar    
  16 C16            5.1530     3.9188     2.7877 C.ar    
  17 C17            5.2594     4.4941     4.0414 C.ar    
  18 C18            4.9662     5.8351     4.2103 C.ar    
  19 C19            4.5675     6.6017     3.1352 C.ar    
  20 C20            4.4580     6.0311     1.8695 C.ar    
  21 O21            3.8369     5.8860    -1.5198 O.2     
  22 C22            3.7015     7.9935     0.4697 C.3     
  23 O23            5.7695     9.4647     0.4977 O.3     
  24 C24            4.8439     8.7478    -0.1603 C.2     
  25 C25            5.1098     8.8169    -1.4771 C.2     
  26 C26            6.2629     9.6224    -1.6204 C.2     
  27 C27            6.6326     9.9974    -0.3826 C.2     
  28 C28            7.8147    10.8677    -0.0417 C.3     
  29 F29            7.4190    12.2095    -0.0331 F       
  30 F30            8.3027    10.5173     1.2218 F       
  31 F31            8.8200    10.6841    -0.9972 F       
  32 C32            4.2493     8.0617     3.3308 C.3     
  33 F33            4.5815     8.4406     4.6360 F       
  34 F34            4.9880     8.8259     2.4211 F       
  35 F35            2.8832     8.2739     3.1171 F       
  36 H36            0.0451    -0.0432     0.8855 H       
  37 H37           -0.7898    -0.0055    -0.7003 H       
  38 H38            4.1105     0.1104    -0.9577 H       
  39 H39            1.6154     4.1236     0.4494 H       
  40 H40            6.6985     4.1094     0.1630 H       
  41 H41            5.8917     4.1849    -1.4389 H       
  42 H42            5.3810     2.8718     2.6534 H       
  43 H43            5.5702     3.8974     4.8862 H       
  44 H44            5.0495     6.2842     5.1890 H       
  45 H45            2.8256     8.0547    -0.1761 H       
  46 H46            3.4685     8.4312     1.4404 H       
  47 H47            4.5503     8.3467    -2.2722 H       
  48 H48            6.7530     9.8858    -2.5461 H       
@<TRIPOS>BOND
   1    1    2 1
   2    1    5 1
   3    2    3 1
   4    2   36 1
   5    2   37 1
   6    3    4 1
   7    4    5 ar
   8    4    6 ar
   9    5    9 ar
  10    6    7 ar
  11    6   38 1
  12    7    8 ar
  13    7   10 1
  14    8    9 ar
  15    8   11 1
  16    9   39 1
  17   10   12 1
  18   11   12 1
  19   11   14 1
  20   11   15 1
  21   12   40 1
  22   12   41 1
  23   13   14 am
  24   13   20 1
  25   13   22 1
  26   14   21 2
  27   15   16 ar
  28   15   20 ar
  29   16   17 ar
  30   16   42 1
  31   17   18 ar
  32   17   43 1
  33   18   19 ar
  34   18   44 1
  35   19   20 ar
  36   19   32 1
  37   22   24 1
  38   22   45 1
  39   22   46 1
  40   23   24 1
  41   23   27 1
  42   24   25 2
  43   25   26 1
  44   25   47 1
  45   26   27 2
  46   26   48 1
  47   27   28 1
  48   28   29 1
  49   28   30 1
  50   28   31 1
  51   32   33 1
  52   32   34 1
  53   32   35 1

#	End of record

