#	Name: ASD04590372
#	Creating user name:	WinNT
#	Creation time:	15. 06. 2019 20:50

#	Modifying user name:	WinNT
#	Modification time:	15. 06. 2019 20:50

#	Program:	/corina/corina34_cracker 3.40 0067  02.08.2006

@<TRIPOS>MOLECULE
ASD04590372
  39   43    0    0    0
SMALL
NO_CHARGES


@<TRIPOS>ATOM
   1 C1            -0.0169     1.3940     0.0097 C.ar    
   2 C2             0.0021    -0.0041     0.0020 C.ar    
   3 C3            -1.1789    -0.7159     0.0091 C.ar    
   4 C4            -2.4024    -0.0369     0.0237 C.ar    
   5 C5            -2.4152     1.3683     0.0310 C.ar    
   6 C6            -1.2201     2.0740     0.0197 C.ar    
   7 N7            -3.6942    -0.4500     0.0330 N.2     
   8 C8            -4.4902     0.5915     0.0450 C.2     
   9 N9            -3.7472     1.7421     0.0443 N.pl3   
  10 C10           -5.9665     0.5330     0.0567 C.2     
  11 C11           -6.7519    -0.6430     0.0573 C.2     
  12 C12           -8.0549    -0.2697     0.0705 C.2     
  13 N13           -8.0990     1.0886     0.0781 N.pl3   
  14 N14           -6.7832     1.5681     0.0742 N.2     
  15 N15           -6.2684    -1.9614     0.0454 N.am    
  16 C16           -7.1322    -2.9960     0.0475 C.2     
  17 C17           -6.6244    -4.3810     0.0350 C.ar    
  18 O18           -8.3303    -2.7877     0.0597 O.2     
  19 C19           -6.3933    -5.0347    -1.1802 C.ar    
  20 C20           -5.9174    -6.3324    -1.1826 C.ar    
  21 C21           -5.6698    -6.9846     0.0116 C.ar    
  22 C22           -5.8959    -6.3461     1.2174 C.ar    
  23 C23           -6.3657    -5.0463     1.2383 C.ar    
  24 F24           -6.5855    -4.4242     2.4172 F       
  25 F25           -6.6349    -4.3995    -2.3478 F       
  26 O26            1.2722     1.8457    -0.0002 O.3     
  27 C27            2.0772     0.7214     0.3999 C.3     
  28 O28            1.3034    -0.4202    -0.0130 O.3     
  29 F29            3.3116     0.7421    -0.2582 F       
  30 F30            2.2588     0.7160     1.7871 F       
  31 H31           -1.1597    -1.7957     0.0030 H       
  32 H32           -1.2303     3.1540     0.0258 H       
  33 H33           -4.0906     2.6492     0.0515 H       
  34 H34           -8.9066    -0.9337     0.0738 H       
  35 H35           -8.9026     1.6318     0.0879 H       
  36 H36           -5.3128    -2.1276     0.0357 H       
  37 H37           -5.7388    -6.8386    -2.1197 H       
  38 H38           -5.2980    -7.9986     0.0025 H       
  39 H39           -5.7002    -6.8629     2.1454 H       
@<TRIPOS>BOND
   1    1    2 ar
   2    1   26 1
   3    1    6 ar
   4    2    3 ar
   5    2   28 1
   6    3    4 ar
   7    3   31 1
   8    4    5 ar
   9    4    7 1
  10    5    6 ar
  11    5    9 1
  12    6   32 1
  13    7    8 2
  14    8    9 1
  15    8   10 1
  16    9   33 1
  17   10   11 1
  18   10   14 2
  19   11   12 2
  20   11   15 1
  21   12   13 1
  22   12   34 1
  23   13   14 1
  24   13   35 1
  25   15   16 am
  26   15   36 1
  27   16   17 1
  28   16   18 2
  29   17   19 ar
  30   17   23 ar
  31   19   20 ar
  32   19   25 1
  33   20   21 ar
  34   20   37 1
  35   21   22 ar
  36   21   38 1
  37   22   23 ar
  38   22   39 1
  39   23   24 1
  40   26   27 1
  41   27   28 1
  42   27   29 1
  43   27   30 1

#	End of record

