#	Name: ASD03730874
#	Creating user name:	WinNT
#	Creation time:	15. 06. 2019 20:44

#	Modifying user name:	WinNT
#	Modification time:	15. 06. 2019 20:44

#	Program:	/corina/corina34_cracker 3.40 0067  02.08.2006

@<TRIPOS>MOLECULE
ASD03730874
  59   65    0    0    0
SMALL
NO_CHARGES


@<TRIPOS>ATOM
   1 C1             1.3816    -1.2170    -2.4764 C.2     
   2 C2             0.4829    -1.1583    -1.3044 C.ar    
   3 C3             0.7351    -0.2528    -0.2721 C.ar    
   4 C4            -0.1078    -0.2028     0.8185 C.ar    
   5 C5            -1.2015    -1.0476     0.8910 C.ar    
   6 C6            -1.4569    -1.9475    -0.1282 C.ar    
   7 C7            -0.6249    -2.0039    -1.2275 C.ar    
   8 O8             2.3219    -0.4512    -2.5603 O.2     
   9 N9             1.1618    -2.1234    -3.4494 N.am    
  10 C10            1.9258     0.6676    -0.3491 C.3     
  11 O11            0.1154    -0.7054     6.4720 O.3     
  12 C12            0.0738    -0.3781     7.8735 C.3     
  13 O13            1.3597     0.2192     8.1238 O.3     
  14 C14            1.7521     0.7559     6.9310 C.ar    
  15 C15            0.9873     0.1862     5.9156 C.ar    
  16 C16            2.7151     1.7005     6.6246 C.ar    
  17 C17            2.9288     2.0872     5.3050 C.ar    
  18 C18            2.1643     1.5050     4.2985 C.ar    
  19 C19            1.1992     0.5673     4.6013 C.ar    
  20 O20            3.8033     3.0012     4.7950 O.3     
  21 C21            2.6418     2.0979     2.9999 C.3     
  22 C22            3.9705     2.7630     3.3840 C.3     
  23 N23            2.0400     1.4240     0.9003 N.am    
  24 C24            2.8246     1.0570     1.9331 C.2     
  25 C25            1.6663     3.0845     2.4299 C.ar    
  26 C26            1.1012     4.2468     2.9052 C.ar    
  27 C27            0.2102     4.9559     2.1195 C.ar    
  28 C28           -0.1118     4.4943     0.8561 C.ar    
  29 C29            0.4508     3.3302     0.3759 C.ar    
  30 C30            1.3490     2.6101     1.1598 C.ar    
  31 O31            3.5385     0.0781     1.9896 O.2     
  32 C32            1.8952    -2.0644    -4.6386 C.ar    
  33 C33            1.3925    -2.6457    -5.7952 C.ar    
  34 C34            2.1197    -2.5862    -6.9705 C.ar    
  35 C35            3.3484    -1.9479    -6.9941 C.ar    
  36 C36            3.8516    -1.3676    -5.8419 C.ar    
  37 C37            3.1247    -1.4194    -4.6659 C.ar    
  38 F38            5.0507    -0.7459    -5.8675 F       
  39 F39            1.6310    -3.1516    -8.0960 F       
  40 H40            0.0863     0.4970     1.6179 H       
  41 H41           -1.8583    -1.0044     1.7471 H       
  42 H42           -2.3117    -2.6046    -0.0652 H       
  43 H43           -0.8281    -2.7035    -2.0247 H       
  44 H44            0.4948    -2.8166    -3.3249 H       
  45 H45            2.8306     0.0792    -0.5016 H       
  46 H46            1.7974     1.3590    -1.1820 H       
  47 H47           -0.7256     0.3344     8.0769 H       
  48 H48           -0.0532    -1.2792     8.4736 H       
  49 H49            3.3051     2.1409     7.4148 H       
  50 H50            0.6074     0.1290     3.8114 H       
  51 H51            4.1033     3.7016     2.8461 H       
  52 H52            4.8076     2.0892     3.2017 H       
  53 H53            1.3540     4.6053     3.8922 H       
  54 H54           -0.2325     5.8680     2.4916 H       
  55 H55           -0.8074     5.0479     0.2428 H       
  56 H56            0.1940     2.9758    -0.6114 H       
  57 H57            0.4346    -3.1441    -5.7771 H       
  58 H58            3.9152    -1.9030    -7.9123 H       
  59 H59            3.5154    -0.9626    -3.7686 H       
@<TRIPOS>BOND
   1    1    2 1
   2    1    8 2
   3    1    9 am
   4    2    3 ar
   5    2    7 ar
   6    3    4 ar
   7    3   10 1
   8    4    5 ar
   9    4   40 1
  10    5    6 ar
  11    5   41 1
  12    6    7 ar
  13    6   42 1
  14    7   43 1
  15    9   32 1
  16    9   44 1
  17   10   23 1
  18   10   45 1
  19   10   46 1
  20   11   12 1
  21   11   15 1
  22   12   13 1
  23   12   47 1
  24   12   48 1
  25   13   14 1
  26   14   15 ar
  27   14   16 ar
  28   15   19 ar
  29   16   17 ar
  30   16   49 1
  31   17   18 ar
  32   17   20 1
  33   18   19 ar
  34   18   21 1
  35   19   50 1
  36   20   22 1
  37   21   22 1
  38   21   24 1
  39   21   25 1
  40   22   51 1
  41   22   52 1
  42   23   24 am
  43   23   30 1
  44   24   31 2
  45   25   26 ar
  46   25   30 ar
  47   26   27 ar
  48   26   53 1
  49   27   28 ar
  50   27   54 1
  51   28   29 ar
  52   28   55 1
  53   29   30 ar
  54   29   56 1
  55   32   33 ar
  56   32   37 ar
  57   33   34 ar
  58   33   57 1
  59   34   35 ar
  60   34   39 1
  61   35   36 ar
  62   35   58 1
  63   36   37 ar
  64   36   38 1
  65   37   59 1

#	End of record

