#	Name: ASD03430230
#	Creating user name:	WinNT
#	Creation time:	15. 06. 2019 20:40

#	Modifying user name:	WinNT
#	Modification time:	15. 06. 2019 20:40

#	Program:	/corina/corina34_cracker 3.40 0067  02.08.2006

@<TRIPOS>MOLECULE
ASD03430230
  50   55    0    0    0
SMALL
NO_CHARGES


@<TRIPOS>ATOM
   1 C1            -1.0379     1.0823     0.5718 C.ar    
   2 C2            -0.8558    -0.2911     0.4599 C.ar    
   3 C3             0.4239    -0.8169     0.4294 C.ar    
   4 C4             1.5346     0.0156     0.5183 C.ar    
   5 C5             1.3418     1.3909     0.6233 C.ar    
   6 C6             0.0661     1.9177     0.6495 C.ar    
   7 O7             2.6939    -0.7030     0.4970 O.3     
   8 C8             0.9488    -2.2208     0.2958 C.3     
   9 C9             2.4314    -2.0116    -0.0447 C.3     
  10 C10            0.0329    -4.1423     1.1843 C.ar    
  11 C11            0.7737    -3.0214     1.5520 C.ar    
  12 C12            0.2371    -2.9978    -0.7742 C.2     
  13 N13           -0.2645    -4.0988    -0.1799 N.am    
  14 O14            0.1336    -2.6940    -1.9439 O.2     
  15 C15            1.1795    -2.8473     2.8559 C.ar    
  16 C16            0.8559    -3.7914     3.8147 C.ar    
  17 C17            0.1235    -4.9093     3.4605 C.ar    
  18 C18           -0.2877    -5.0870     2.1555 C.ar    
  19 O19           -2.2882     1.6200     0.6119 O.3     
  20 O20           -1.9263    -1.1286     0.3751 O.3     
  21 C21           -3.1917    -0.6005     0.7866 C.3     
  22 C22           -3.3617     0.7876     0.1594 C.3     
  23 C23           -1.0326    -5.1295    -0.8827 C.3     
  24 C24           -0.0873    -6.1349    -1.4883 C.ar    
  25 N25            0.7553    -6.7872    -0.7117 N.ar    
  26 C26            1.6003    -7.6757    -1.1974 C.ar    
  27 C27            1.6318    -7.9555    -2.5503 C.ar    
  28 C28            0.7603    -7.2892    -3.3985 C.ar    
  29 C29           -0.1175    -6.3667    -2.8507 C.ar    
  30 Cl30           2.7143     2.4493     0.7227 Cl      
  31 C31           -1.0843    -5.6173    -3.7309 C.3     
  32 F32           -0.9682    -6.0761    -5.0474 F       
  33 F33           -2.3902    -5.8303    -3.2763 F       
  34 F34           -0.7922    -4.2499    -3.6861 F       
  35 H35           -0.0728     2.9856     0.7308 H       
  36 H36            2.5859    -2.0221    -1.1236 H       
  37 H37            3.0506    -2.7641     0.4435 H       
  38 H38            1.7511    -1.9732     3.1308 H       
  39 H39            1.1753    -3.6555     4.8374 H       
  40 H40           -0.1276    -5.6468     4.2085 H       
  41 H41           -0.8600    -5.9624     1.8863 H       
  42 H42           -3.9922    -1.2584     0.4482 H       
  43 H43           -3.2190    -0.5161     1.8730 H       
  44 H44           -4.3158     1.2157     0.4669 H       
  45 H45           -3.3273     0.7069    -0.9270 H       
  46 H46           -1.6954    -5.6323    -0.1784 H       
  47 H47           -1.6249    -4.6665    -1.6719 H       
  48 H48            2.2758    -8.1903    -0.5301 H       
  49 H49            2.3266    -8.6836    -2.9420 H       
  50 H50            0.7627    -7.4872    -4.4602 H       
@<TRIPOS>BOND
   1    1    2 ar
   2    1    6 ar
   3    1   19 1
   4    2    3 ar
   5    2   20 1
   6    3    4 ar
   7    3    8 1
   8    4    5 ar
   9    4    7 1
  10    5    6 ar
  11    5   30 1
  12    6   35 1
  13    7    9 1
  14    8    9 1
  15    8   11 1
  16    8   12 1
  17    9   36 1
  18    9   37 1
  19   10   11 ar
  20   10   13 1
  21   10   18 ar
  22   11   15 ar
  23   12   13 am
  24   12   14 2
  25   13   23 1
  26   15   16 ar
  27   15   38 1
  28   16   17 ar
  29   16   39 1
  30   17   18 ar
  31   17   40 1
  32   18   41 1
  33   19   22 1
  34   20   21 1
  35   21   22 1
  36   21   42 1
  37   21   43 1
  38   22   44 1
  39   22   45 1
  40   23   24 1
  41   23   46 1
  42   23   47 1
  43   24   25 ar
  44   24   29 ar
  45   25   26 ar
  46   26   27 ar
  47   26   48 1
  48   27   28 ar
  49   27   49 1
  50   28   29 ar
  51   28   50 1
  52   29   31 1
  53   31   32 1
  54   31   33 1
  55   31   34 1

#	End of record

