#	Name: ASD05313023
#	Creating user name:	WinNT
#	Creation time:	15. 06. 2019 20:58

#	Modifying user name:	WinNT
#	Modification time:	15. 06. 2019 20:58

#	Program:	/corina/corina34_cracker 3.40 0067  02.08.2006

@<TRIPOS>MOLECULE
ASD05313023
  44   47    0    0    0
SMALL
NO_CHARGES


@<TRIPOS>ATOM
   1 C1            -0.0736     0.8190     1.0170 C.2     
   2 C2             0.1127    -0.6176     0.5915 C.3     
   3 N3             0.9409     1.7391     1.0431 N.pl3   
   4 N4             1.4569    -0.7161    -0.0086 N.am    
   5 C5             2.5718    -0.0378     0.6692 C.3     
   6 C6             2.3263     1.4760     0.6588 C.3     
   7 N7            -0.8911     2.6464     1.6949 N.2     
   8 N8            -1.1510     1.4151     1.4166 N.2     
   9 C9             0.3833     2.8947     1.4833 C.2     
  10 N10            1.0321     4.1040     1.6757 N.3     
  11 C11            0.0966     5.1339     2.1636 C.3     
  12 C12            0.6619     5.6712     3.4952 C.3     
  13 C13            2.1706     5.3224     3.4005 C.3     
  14 C14            2.1318     3.9654     2.6542 C.3     
  15 C15            1.6577    -1.4093    -1.1468 C.2     
  16 O16            2.7498    -1.3983    -1.6806 O.2     
  17 C17            0.5503    -2.1828    -1.7459 C.ar    
  18 C18            0.3185    -2.1255    -3.1227 C.ar    
  19 C19           -0.7185    -2.8513    -3.6753 C.ar    
  20 C20           -1.5262    -3.6324    -2.8688 C.ar    
  21 C21           -1.3019    -3.6927    -1.5046 C.ar    
  22 C22           -0.2657    -2.9784    -0.9400 C.ar    
  23 C23           -0.9709    -2.7916    -5.1598 C.3     
  24 F24           -2.0647    -3.6030    -5.4799 F       
  25 F25           -1.2443    -1.4714    -5.5336 F       
  26 F26            0.1621    -3.2448    -5.8440 F       
  27 Cl27           1.3310    -1.1445    -4.1358 Cl      
  28 H28            0.0430    -1.2746     1.4584 H       
  29 H29           -0.6442    -0.8890    -0.1443 H       
  30 H30            2.6389    -0.3884     1.6991 H       
  31 H31            3.5031    -0.2588     0.1478 H       
  32 H32            2.5075     1.8678    -0.3421 H       
  33 H33            2.9990     1.9589     1.3675 H       
  34 H34            0.0250     5.9436     1.4375 H       
  35 H35           -0.8866     4.6932     2.3290 H       
  36 H36            0.5194     6.7494     3.5672 H       
  37 H37            0.2013     5.1631     4.3424 H       
  38 H38            2.7089     6.0718     2.8202 H       
  39 H39            2.6084     5.2101     4.3923 H       
  40 H40            1.9195     3.1549     3.3514 H       
  41 H41            3.0766     3.7876     2.1407 H       
  42 H42           -2.3361    -4.1978    -3.3057 H       
  43 H43           -1.9371    -4.3043    -0.8810 H       
  44 H44           -0.0891    -3.0309     0.1242 H       
@<TRIPOS>BOND
   1    1    2 1
   2    1    3 1
   3    1    8 2
   4    2    4 1
   5    2   28 1
   6    2   29 1
   7    3    6 1
   8    3    9 1
   9    4    5 1
  10    4   15 am
  11    5    6 1
  12    5   30 1
  13    5   31 1
  14    6   32 1
  15    6   33 1
  16    7    8 1
  17    7    9 2
  18    9   10 1
  19   10   11 1
  20   10   14 1
  21   11   12 1
  22   11   34 1
  23   11   35 1
  24   12   13 1
  25   12   36 1
  26   12   37 1
  27   13   14 1
  28   13   38 1
  29   13   39 1
  30   14   40 1
  31   14   41 1
  32   15   16 2
  33   15   17 1
  34   17   18 ar
  35   17   22 ar
  36   18   19 ar
  37   18   27 1
  38   19   20 ar
  39   19   23 1
  40   20   21 ar
  41   20   42 1
  42   21   22 ar
  43   21   43 1
  44   22   44 1
  45   23   24 1
  46   23   25 1
  47   23   26 1

#	End of record

