#	Name: ASD08120001
#	Creating user name:	WinNT
#	Creation time:	15. 06. 2019 21:15

#	Modifying user name:	WinNT
#	Modification time:	15. 06. 2019 21:15

#	Program:	/corina/corina34_cracker 3.40 0067  02.08.2006

@<TRIPOS>MOLECULE
ASD08120001
  35   37    0    0    0
SMALL
NO_CHARGES


@<TRIPOS>ATOM
   1 C1            -0.0124     1.2604     0.7110 C.ar    
   2 C2            -1.1280     1.5653     1.4693 C.ar    
   3 C3            -2.3184     0.9014     1.2471 C.ar    
   4 C4            -2.3944    -0.0737     0.2605 C.ar    
   5 C5            -1.2718    -0.3775    -0.4993 C.ar    
   6 C6            -0.0860     0.2939    -0.2754 C.ar    
   7 S7             1.5042     2.1102     0.9975 S.o2    
   8 N8            -3.5974    -0.7477     0.0333 N.pl3   
   9 C9            -4.8029    -0.0740     0.1535 C.2     
  10 N10           -5.9771    -0.6204     0.0805 N.2     
  11 C11           -7.0267     0.1877     0.2202 C.2     
  12 C12           -6.7312     1.4834     0.4217 C.2     
  13 S13           -4.9777     1.6552     0.4366 S.3     
  14 C14           -8.4233    -0.3074     0.1573 C.ar    
  15 C15           -8.6762    -1.6614    -0.0538 C.ar    
  16 C16           -9.9788    -2.1173    -0.1111 C.ar    
  17 C17          -11.0322    -1.2305     0.0411 C.ar    
  18 C18          -10.7852     0.1153     0.2510 C.ar    
  19 C19           -9.4874     0.5795     0.3150 C.ar    
  20 Cl20         -12.6674    -1.8089    -0.0323 Cl      
  21 Cl21         -10.2963    -3.8035    -0.3745 Cl      
  22 N22            2.3434     1.2459     2.1338 N.am    
  23 O23            2.2501     2.0177    -0.2085 O.2     
  24 O24            1.1620     3.3476     1.6067 O.2     
  25 H25           -1.0681     2.3232     2.2363 H       
  26 H26           -3.1891     1.1398     1.8398 H       
  27 H27           -1.3274    -1.1353    -1.2668 H       
  28 H28            0.7870     0.0585    -0.8660 H       
  29 H29           -3.5888    -1.6871    -0.2085 H       
  30 H30           -7.4461     2.2817     0.5560 H       
  31 H31           -7.8552    -2.3530    -0.1728 H       
  32 H32          -11.6098     0.8027     0.3687 H       
  33 H33           -9.2962     1.6297     0.4788 H       
  34 H34            1.9641     0.4327     2.5022 H       
  35 H35            3.2143     1.5529     2.4309 H       
@<TRIPOS>BOND
   1    1    2 ar
   2    1    7 1
   3    1    6 ar
   4    2    3 ar
   5    2   25 1
   6    3    4 ar
   7    3   26 1
   8    4    5 ar
   9    4    8 1
  10    5    6 ar
  11    5   27 1
  12    6   28 1
  13    7   22 am
  14    7   23 2
  15    7   24 2
  16    8    9 1
  17    8   29 1
  18    9   10 2
  19    9   13 1
  20   10   11 1
  21   11   12 2
  22   11   14 1
  23   12   13 1
  24   12   30 1
  25   14   15 ar
  26   14   19 ar
  27   15   16 ar
  28   15   31 1
  29   16   17 ar
  30   16   21 1
  31   17   18 ar
  32   17   20 1
  33   18   19 ar
  34   18   32 1
  35   19   33 1
  36   22   34 1
  37   22   35 1

#	End of record

