#	Name: ASD07930139
#	Creating user name:	WinNT
#	Creation time:	15. 06. 2019 21:11

#	Modifying user name:	WinNT
#	Modification time:	15. 06. 2019 21:11

#	Program:	/corina/corina34_cracker 3.40 0067  02.08.2006

@<TRIPOS>MOLECULE
ASD07930139
  58   62    0    0    0
SMALL
NO_CHARGES


@<TRIPOS>ATOM
   1 C1            -0.4837     0.9454     1.0375 C.2     
   2 C2            -0.3187    -0.4927     0.7306 C.2     
   3 N3             0.6128     1.7713     0.9346 N.am    
   4 N4             0.9218    -1.0324     0.7994 N.am    
   5 C5             2.0437    -0.1761     1.2097 C.3     
   6 C6             1.8947     1.1871     0.5178 C.3     
   7 C7            -1.6979     1.4361     1.4077 C.2     
   8 C8            -1.8584     2.7960     1.7010 C.2     
   9 C9            -0.7818     3.6354     1.6143 C.2     
  10 C10            0.5131     3.0838     1.2080 C.2     
  11 O11           -1.2766    -1.1756     0.4236 O.2     
  12 O12            1.4903     3.8075     1.1187 O.2     
  13 C13           -0.3284     5.6672     2.9279 C.2     
  14 N14           -0.6924     6.9191     2.8682 N.2     
  15 C15           -1.5122     7.0944     1.8209 C.2     
  16 C16           -1.6659     5.9077     1.2036 C.2     
  17 N17           -0.9161     4.9965     1.9024 N.pl3   
  18 C18           -2.1512     8.3950     1.4070 C.3     
  19 C19            1.1411    -2.4431     0.4705 C.3     
  20 C20            0.9012    -2.6615    -1.0247 C.3     
  21 C21            0.1711    -3.3110     1.2748 C.3     
  22 O22           -0.4707    -2.4030    -1.3298 O.3     
  23 O23           -3.9383    -2.3700    -4.4138 O.3     
  24 C24           -4.5562    -2.2179    -3.1246 C.3     
  25 C25           -3.3647    -1.8285    -2.2179 C.3     
  26 C26           -2.1920    -2.4328    -2.9656 C.ar    
  27 C27           -2.6341    -2.7253    -4.2481 C.ar    
  28 C28           -1.7452    -3.3084    -5.1508 C.ar    
  29 C29           -0.4452    -3.5813    -4.7717 C.ar    
  30 C30           -0.0114    -3.2793    -3.4947 C.ar    
  31 C31           -0.8902    -2.7025    -2.5877 C.ar    
  32 C32           -3.2260    -0.3080    -2.1200 C.3     
  33 F33           -4.3384     0.2200    -1.4559 F       
  34 F34           -2.0640     0.0095    -1.4084 F       
  35 F35           -3.1487     0.2370    -3.4062 F       
  36 F36           -2.1577    -3.6082    -6.4018 F       
  37 H37            2.0255    -0.0418     2.2912 H       
  38 H38            2.9849    -0.6375     0.9109 H       
  39 H39            1.9045     1.0541    -0.5640 H       
  40 H40            2.7126     1.8429     0.8162 H       
  41 H41           -2.5457     0.7705     1.4757 H       
  42 H42           -2.8250     3.1792     1.9932 H       
  43 H43            0.3326     5.2373     3.6659 H       
  44 H44           -2.2647     5.7111     0.3266 H       
  45 H45           -1.4962     8.9153     0.7081 H       
  46 H46           -3.1082     8.1927     0.9262 H       
  47 H47           -2.3111     9.0175     2.2873 H       
  48 H48            2.1662    -2.7188     0.7181 H       
  49 H49            1.5346    -1.9837    -1.5971 H       
  50 H50            1.1434    -3.6919    -1.2848 H       
  51 H51            0.3343    -4.3606     1.0301 H       
  52 H52            0.3420    -3.1554     2.3400 H       
  53 H53           -0.8540    -3.0353     1.0271 H       
  54 H54           -5.3018    -1.4230    -3.1451 H       
  55 H55           -5.0006    -3.1574    -2.7961 H       
  56 H56           -3.4667    -2.2735    -1.2281 H       
  57 H57            0.2361    -4.0334    -5.4773 H       
  58 H58            1.0066    -3.4919    -3.2033 H       
@<TRIPOS>BOND
   1    1    2 1
   2    1    3 1
   3    1    7 2
   4    2    4 am
   5    2   11 2
   6    3    6 1
   7    3   10 am
   8    4    5 1
   9    4   19 1
  10    5    6 1
  11    5   37 1
  12    5   38 1
  13    6   39 1
  14    6   40 1
  15    7    8 1
  16    7   41 1
  17    8    9 2
  18    8   42 1
  19    9   10 1
  20    9   17 1
  21   10   12 2
  22   13   14 2
  23   13   17 1
  24   13   43 1
  25   14   15 1
  26   15   16 2
  27   15   18 1
  28   16   17 1
  29   16   44 1
  30   18   45 1
  31   18   46 1
  32   18   47 1
  33   19   20 1
  34   19   21 1
  35   19   48 1
  36   20   22 1
  37   20   49 1
  38   20   50 1
  39   21   51 1
  40   21   52 1
  41   21   53 1
  42   22   31 1
  43   23   24 1
  44   23   27 1
  45   24   25 1
  46   24   54 1
  47   24   55 1
  48   25   26 1
  49   25   32 1
  50   25   56 1
  51   26   27 ar
  52   26   31 ar
  53   27   28 ar
  54   28   29 ar
  55   28   36 1
  56   29   30 ar
  57   29   57 1
  58   30   31 ar
  59   30   58 1
  60   32   33 1
  61   32   34 1
  62   32   35 1

#	End of record

