#	Name: ASD00600009
#	Creating user name:	WinNT
#	Creation time:	15. 06. 2019 18:36

#	Modifying user name:	WinNT
#	Modification time:	15. 06. 2019 18:36

#	Program:	/corina/corina34_cracker 3.40 0067  02.08.2006

@<TRIPOS>MOLECULE
ASD00600009
  76   80    0    0    0
SMALL
NO_CHARGES


@<TRIPOS>ATOM
   1 C1            -0.0170     1.3865    -0.0200 C.ar    
   2 C2             0.0022    -0.0022    -0.0213 C.ar    
   3 C3            -1.1543    -0.8772    -0.0146 C.2     
   4 C4            -2.4479    -0.6983    -0.0520 C.2     
   5 C5            -3.1655     0.6007    -0.0201 C.3     
   6 C6            -2.4220     1.6866    -0.7541 C.3     
   7 C7            -1.2524     2.2281     0.0031 C.3     
   8 C8             1.1867     2.0895    -0.0349 C.ar    
   9 C9             2.4011     1.4452    -0.0468 C.ar    
  10 C10            2.4384     0.0504    -0.0441 C.ar    
  11 C11            1.2532    -0.6606    -0.0315 C.ar    
  12 C12           -3.2751    -1.9033    -0.1344 C.2     
  13 O13           -2.7501    -3.0009    -0.1646 O.2     
  14 N14           -4.6180    -1.7972    -0.1768 N.am    
  15 C15           -5.4037    -2.9377    -0.3684 C.ar    
  16 C16           -6.6390    -3.0452     0.2575 C.ar    
  17 C17           -7.4127    -4.1730     0.0657 C.ar    
  18 C18           -6.9589    -5.1945    -0.7485 C.ar    
  19 C19           -5.7293    -5.0908    -1.3727 C.ar    
  20 C20           -4.9531    -3.9633    -1.1897 C.ar    
  21 C21           -7.8059    -6.4236    -0.9555 C.3     
  22 N22           -8.6864    -6.2221    -2.1140 N.4     
  23 C23           -9.5121    -7.4202    -2.3158 C.3     
  24 C24           -9.5560    -5.0631    -1.8724 C.3     
  25 C25           -7.8715    -5.9815    -3.3123 C.3     
  26 C26          -10.4309    -7.2119    -3.5236 C.3     
  27 C27          -11.2302    -8.4934    -3.7739 C.3     
  28 O28          -10.3288    -9.5828    -3.9803 O.3     
  29 C29           -9.4769    -9.8546    -2.8656 C.3     
  30 C30           -8.6071    -8.6278    -2.5788 C.3     
  31 C31            3.7395    -0.6635    -0.0551 C.ar    
  32 C32            4.9321     0.0568    -0.0682 C.ar    
  33 C33            6.1392    -0.6123    -0.0785 C.ar    
  34 C34            6.1664    -1.9952    -0.0757 C.ar    
  35 C35            4.9855    -2.7152    -0.0632 C.ar    
  36 C36            3.7727    -2.0563    -0.0466 C.ar    
  37 C37            7.4876    -2.7201    -0.0870 C.3     
  38 H38           -0.8825    -1.9214     0.0319 H       
  39 H39           -4.1465     0.4733    -0.4779 H       
  40 H40           -3.2995     0.9045     1.0181 H       
  41 H41           -2.0674     1.2858    -1.7036 H       
  42 H42           -3.1128     2.5042    -0.9601 H       
  43 H43           -1.5525     2.3643     1.0420 H       
  44 H44           -1.0054     3.2076    -0.4063 H       
  45 H45            1.1647     3.1693    -0.0375 H       
  46 H46            3.3190     2.0142    -0.0584 H       
  47 H47            1.2834    -1.7402    -0.0295 H       
  48 H48           -5.0395    -0.9295    -0.0743 H       
  49 H49           -6.9938    -2.2479     0.8937 H       
  50 H50           -8.3732    -4.2573     0.5523 H       
  51 H51           -5.3776    -5.8906    -2.0077 H       
  52 H52           -3.9929    -3.8830    -1.6776 H       
  53 H53           -7.1606    -7.2836    -1.1347 H       
  54 H54           -8.4106    -6.6021    -0.0663 H       
  55 H55          -10.1149    -7.6017    -1.4260 H       
  56 H56           -8.9434    -4.1741    -1.7227 H       
  57 H57          -10.2093    -4.9136    -2.7321 H       
  58 H58          -10.1607    -5.2416    -0.9833 H       
  59 H59           -7.2262    -6.8415    -3.4916 H       
  60 H60           -8.5248    -5.8320    -4.1720 H       
  61 H61           -7.2588    -5.0925    -3.1626 H       
  62 H62          -11.1162    -6.3886    -3.3222 H       
  63 H63           -9.8298    -6.9800    -4.4028 H       
  64 H64          -11.8614    -8.7026    -2.9102 H       
  65 H65          -11.8545    -8.3655    -4.6582 H       
  66 H66          -10.0852   -10.0816    -1.9901 H       
  67 H67           -8.8381   -10.7073    -3.0956 H       
  68 H68           -7.9692    -8.4245    -3.4389 H       
  69 H69           -7.9882    -8.8171    -1.7018 H       
  70 H70            4.9120     1.1366    -0.0707 H       
  71 H71            7.0643    -0.0550    -0.0890 H       
  72 H72            5.0124    -3.7949    -0.0615 H       
  73 H73            2.8512    -2.6195    -0.0368 H       
  74 H74            7.8160    -2.8927     0.9379 H       
  75 H75            7.3730    -3.6763    -0.5977 H       
  76 H76            8.2292    -2.1158    -0.6093 H       
@<TRIPOS>BOND
   1    1    2 ar
   2    1    8 ar
   3    1    7 1
   4    2    3 1
   5    2   11 ar
   6    3    4 2
   7    3   38 1
   8    4    5 1
   9    4   12 1
  10    5    6 1
  11    5   39 1
  12    5   40 1
  13    6    7 1
  14    6   41 1
  15    6   42 1
  16    7   43 1
  17    7   44 1
  18    8    9 ar
  19    8   45 1
  20    9   10 ar
  21    9   46 1
  22   10   11 ar
  23   10   31 1
  24   11   47 1
  25   12   13 2
  26   12   14 am
  27   14   15 1
  28   14   48 1
  29   15   16 ar
  30   15   20 ar
  31   16   17 ar
  32   16   49 1
  33   17   18 ar
  34   17   50 1
  35   18   19 ar
  36   18   21 1
  37   19   20 ar
  38   19   51 1
  39   20   52 1
  40   21   22 1
  41   21   53 1
  42   21   54 1
  43   22   23 1
  44   22   24 1
  45   22   25 1
  46   23   26 1
  47   23   30 1
  48   23   55 1
  49   24   56 1
  50   24   57 1
  51   24   58 1
  52   25   59 1
  53   25   60 1
  54   25   61 1
  55   26   27 1
  56   26   62 1
  57   26   63 1
  58   27   28 1
  59   27   64 1
  60   27   65 1
  61   28   29 1
  62   29   30 1
  63   29   66 1
  64   29   67 1
  65   30   68 1
  66   30   69 1
  67   31   32 ar
  68   31   36 ar
  69   32   33 ar
  70   32   70 1
  71   33   34 ar
  72   33   71 1
  73   34   35 ar
  74   34   37 1
  75   35   36 ar
  76   35   72 1
  77   36   73 1
  78   37   74 1
  79   37   75 1
  80   37   76 1

#	End of record

