#	Name: ASD01913271
#	Creating user name:	WinNT
#	Creation time:	15. 06. 2019 20:01

#	Modifying user name:	WinNT
#	Modification time:	15. 06. 2019 20:01

#	Program:	/corina/corina34_cracker 3.40 0067  02.08.2006

@<TRIPOS>MOLECULE
ASD01913271
  50   53    0    0    0
SMALL
NO_CHARGES


@<TRIPOS>ATOM
   1 C1            -0.0895     1.4762    -0.2765 C.3     
   2 N2            -0.0403     0.0111    -0.2448 N.am    
   3 C3             1.3431    -0.3748    -0.5406 C.3     
   4 C4             2.1363     0.8897    -0.7534 C.ar    
   5 C5             3.4726     1.0880    -1.0562 C.ar    
   6 C6             3.9669     2.3696    -1.2031 C.ar    
   7 C7             3.1260     3.4560    -1.0481 C.ar    
   8 C8             1.7924     3.2588    -0.7464 C.ar    
   9 C9             1.2965     1.9747    -0.5986 C.ar    
  10 C10           -1.0694    -0.8216     0.0083 C.2     
  11 C11           -0.8849    -2.2814    -0.1129 C.ar    
  12 C12           -1.9821    -3.1345    -0.0019 C.ar    
  13 C13           -1.8017    -4.5112    -0.1176 C.ar    
  14 C14           -0.5156    -5.0290    -0.3451 C.ar    
  15 C15            0.5685    -4.1705    -0.4537 C.ar    
  16 C16            0.3895    -2.8083    -0.3446 C.ar    
  17 O17           -2.1498    -0.3706     0.3362 O.2     
  18 O18           -0.3340    -6.3683    -0.4581 O.3     
  19 C19            1.0003    -6.8249    -0.6889 C.3     
  20 C20           -2.9227    -5.3951    -0.0046 C.1     
  21 C21           -3.8417    -6.1197     0.0881 C.1     
  22 C22           -4.9627    -7.0035     0.2011 C.2     
  23 C23           -4.7469    -8.2985     0.0853 C.2     
  24 C24           -5.8285    -9.3355     0.1729 C.3     
  25 C25           -7.0791    -8.7386     0.8216 C.3     
  26 C26           -7.4112    -7.4184     0.1154 C.3     
  27 C27           -6.3153    -6.4024     0.4506 C.3     
  28 H28           -0.7886     1.8058    -1.0451 H       
  29 H29           -0.4022     1.8565     0.6960 H       
  30 H30            1.7579    -0.9344     0.2978 H       
  31 H31            1.3715    -0.9850    -1.4433 H       
  32 H32            4.1297     0.2395    -1.1773 H       
  33 H33            5.0098     2.5228    -1.4386 H       
  34 H34            3.5116     4.4584    -1.1624 H       
  35 H35            1.1358     4.1076    -0.6250 H       
  36 H36           -2.9680    -2.7298     0.1733 H       
  37 H37            1.5562    -4.5709    -0.6286 H       
  38 H38            1.2374    -2.1454    -0.4346 H       
  39 H39            1.0050    -7.9126    -0.7591 H       
  40 H40            1.3740    -6.3991    -1.6201 H       
  41 H41            1.6395    -6.5112     0.1363 H       
  42 H42           -3.7337    -8.6327    -0.0825 H       
  43 H43           -6.0741    -9.6870    -0.8292 H       
  44 H44           -5.4764   -10.1752     0.7720 H       
  45 H45           -7.9136    -9.4315     0.7140 H       
  46 H46           -6.8893    -8.5509     1.8784 H       
  47 H47           -7.4493    -7.5790    -0.9621 H       
  48 H48           -8.3736    -7.0469     0.4673 H       
  49 H49           -6.3943    -6.1128     1.4985 H       
  50 H50           -6.4396    -5.5196    -0.1765 H       
@<TRIPOS>BOND
   1    1    2 1
   2    1    9 1
   3    1   28 1
   4    1   29 1
   5    2    3 1
   6    2   10 am
   7    3    4 1
   8    3   30 1
   9    3   31 1
  10    4    5 ar
  11    4    9 ar
  12    5    6 ar
  13    5   32 1
  14    6    7 ar
  15    6   33 1
  16    7    8 ar
  17    7   34 1
  18    8    9 ar
  19    8   35 1
  20   10   11 1
  21   10   17 2
  22   11   12 ar
  23   11   16 ar
  24   12   13 ar
  25   12   36 1
  26   13   14 ar
  27   13   20 1
  28   14   15 ar
  29   14   18 1
  30   15   16 ar
  31   15   37 1
  32   16   38 1
  33   18   19 1
  34   19   39 1
  35   19   40 1
  36   19   41 1
  37   20   21 3
  38   21   22 1
  39   22   23 2
  40   22   27 1
  41   23   24 1
  42   23   42 1
  43   24   25 1
  44   24   43 1
  45   24   44 1
  46   25   26 1
  47   25   45 1
  48   25   46 1
  49   26   27 1
  50   26   47 1
  51   26   48 1
  52   27   49 1
  53   27   50 1

#	End of record

