#	Name: ASD01028655
#	Creating user name:	WinNT
#	Creation time:	15. 06. 2019 18:57

#	Modifying user name:	WinNT
#	Modification time:	15. 06. 2019 18:57

#	Program:	/corina/corina34_cracker 3.40 0067  02.08.2006

@<TRIPOS>MOLECULE
ASD01028655
  46   50    0    0    0
SMALL
NO_CHARGES


@<TRIPOS>ATOM
   1 N1            -0.0157     1.3082     0.0092 N.ar    
   2 C2             0.0021    -0.0041     0.0020 C.ar    
   3 C3             1.1922    -0.7202    -0.0132 C.ar    
   4 C4             2.3996    -0.0447    -0.0211 C.ar    
   5 C5             2.3687     1.3681    -0.0132 C.ar    
   6 C6             3.5518     2.1216    -0.0208 C.ar    
   7 C7             3.4891     3.4809    -0.0134 C.ar    
   8 C8             2.2563     4.1399     0.0018 C.ar    
   9 C9             1.0778     3.4287     0.0101 C.ar    
  10 C10            1.1142     2.0252     0.0023 C.ar    
  11 O11            3.5766    -0.7177    -0.0354 O.3     
  12 C12            3.5077    -2.1450    -0.0420 C.3     
  13 C13            6.8454    -3.5109     0.5393 C.2     
  14 C14            7.8583    -3.9256     1.4279 C.2     
  15 C15            7.6477    -3.8397     2.7657 C.2     
  16 C16            6.4149    -3.3354     3.2497 C.2     
  17 C17            5.4479    -2.9394     2.3736 C.2     
  18 N18            5.6583    -3.0254     1.0315 N.pl3   
  19 N19            5.6092    -3.0013    -1.1205 N.2     
  20 N20            6.7582    -3.4692    -0.7800 N.2     
  21 C21            4.9026    -2.7152    -0.0579 C.2     
  22 O22            6.0016    -2.1142     5.4223 O.3     
  23 N23            5.8273    -2.3595     6.5932 N.2     
  24 C24            5.8582    -3.6401     6.8321 C.2     
  25 C25            6.0906    -4.2749     5.5953 C.2     
  26 C26            6.1773    -3.2385     4.7052 C.2     
  27 C27            5.6806    -4.3113     8.1696 C.3     
  28 O28            2.2210     5.4978     0.0089 O.3     
  29 C29            3.4769     6.1794     0.0002 C.3     
  30 F30            4.2124     5.8166     1.1336 F       
  31 F31            4.1903     5.8280    -1.1508 F       
  32 H32           -0.9344    -0.5420     0.0084 H       
  33 H33            1.1751    -1.8000    -0.0185 H       
  34 H34            4.5103     1.6241    -0.0322 H       
  35 H35            4.4024     4.0574    -0.0190 H       
  36 H36            0.1306     3.9474     0.0219 H       
  37 H37            2.9853    -2.4877     0.8512 H       
  38 H38            2.9687    -2.4787    -0.9287 H       
  39 H39            8.7937    -4.3085     1.0473 H       
  40 H40            8.4150    -4.1541     3.4576 H       
  41 H41            4.5096    -2.5561     2.7466 H       
  42 H42            6.1799    -5.3327     5.3962 H       
  43 H43            4.6245    -4.5282     8.3299 H       
  44 H44            6.2493    -5.2410     8.1879 H       
  45 H45            6.0395    -3.6502     8.9584 H       
  46 H46            3.3061     7.2559     0.0072 H       
@<TRIPOS>BOND
   1    1    2 ar
   2    1   10 ar
   3    2    3 ar
   4    2   32 1
   5    3    4 ar
   6    3   33 1
   7    4    5 ar
   8    4   11 1
   9    5    6 ar
  10    5   10 ar
  11    6    7 ar
  12    6   34 1
  13    7    8 ar
  14    7   35 1
  15    8    9 ar
  16    8   28 1
  17    9   10 ar
  18    9   36 1
  19   11   12 1
  20   12   21 1
  21   12   37 1
  22   12   38 1
  23   13   14 1
  24   13   18 1
  25   13   20 2
  26   14   15 2
  27   14   39 1
  28   15   16 1
  29   15   40 1
  30   16   17 2
  31   16   26 1
  32   17   18 1
  33   17   41 1
  34   18   21 1
  35   19   20 1
  36   19   21 2
  37   22   23 1
  38   22   26 1
  39   23   24 2
  40   24   25 1
  41   24   27 1
  42   25   26 2
  43   25   42 1
  44   27   43 1
  45   27   44 1
  46   27   45 1
  47   28   29 1
  48   29   30 1
  49   29   31 1
  50   29   46 1

#	End of record

