#	Name: ASD02560191
#	Creating user name:	WinNT
#	Creation time:	15. 06. 2019 20:24

#	Modifying user name:	WinNT
#	Modification time:	15. 06. 2019 20:24

#	Program:	/corina/corina34_cracker 3.40 0067  02.08.2006

@<TRIPOS>MOLECULE
ASD02560191
  46   48    0    0    0
SMALL
NO_CHARGES


@<TRIPOS>ATOM
   1 N1             0.1025     1.2610    -0.6278 N.ar    
   2 C2             0.1348    -0.0657    -0.5922 C.ar    
   3 C3             1.3508    -0.7078    -0.3627 C.ar    
   4 C4             2.4819     0.0662    -0.1801 C.ar    
   5 N5             2.3784     1.3854    -0.2281 N.ar    
   6 C6             1.2085     1.9685    -0.4481 C.ar    
   7 O7            -0.9985    -0.7858    -0.7759 O.3     
   8 C8            -2.1550    -0.1092    -0.9952 C.ar    
   9 C9            -4.5151     1.2720    -1.4428 C.ar    
  10 C10           -4.1259     0.9538    -0.1388 C.ar    
  11 C11           -2.9516     0.2677     0.0793 C.ar    
  12 C12           -2.5359     0.2093    -2.2932 C.ar    
  13 C13           -3.7081     0.8959    -2.5201 C.ar    
  14 C14           -2.5304    -0.0750     1.4850 C.3     
  15 C15           -1.6649    -0.1967    -3.4540 C.3     
  16 C16           -5.7351     1.9852    -1.6741 C.1     
  17 N17           -6.7029     2.5510    -1.8576 N.1     
  18 S18            1.1218     3.7275    -0.5031 S.3     
  19 C19            2.8595     4.1373    -0.2051 C.3     
  20 C20            3.0303     5.6346    -0.2086 C.2     
  21 N21            4.2484     6.1743    -0.0053 N.am    
  22 C22            4.4257     7.5587    -0.1052 C.ar    
  23 O23            2.0715     6.3539    -0.3943 O.2     
  24 C24            5.7757     9.4402    -0.7278 C.ar    
  25 C25            5.6039     8.0733    -0.6301 C.ar    
  26 C26            3.4215     8.4210     0.3150 C.ar    
  27 C27            3.5994     9.7869     0.2146 C.ar    
  28 C28            4.7759    10.2962    -0.3036 C.ar    
  29 H29            1.4080    -1.7858    -0.3279 H       
  30 H30            3.4392    -0.4001     0.0001 H       
  31 H31           -4.7466     1.2426     0.6965 H       
  32 H32           -4.0053     1.1399    -3.5293 H       
  33 H33           -2.9372    -1.0484     1.7591 H       
  34 H34           -1.4423    -0.1073     1.5406 H       
  35 H35           -2.9070     0.6827     2.1722 H       
  36 H36           -1.9628    -1.1853    -3.8034 H       
  37 H37           -1.7790     0.5244    -4.2634 H       
  38 H38           -0.6231    -0.2228    -3.1348 H       
  39 H39            3.1660     3.7389     0.7621 H       
  40 H40            3.4759     3.6994    -0.9902 H       
  41 H41            5.0022     5.6031     0.2102 H       
  42 H42            6.6919     9.8410    -1.1356 H       
  43 H43            6.3853     7.4052    -0.9613 H       
  44 H44            2.5022     8.0238     0.7195 H       
  45 H45            2.8186    10.4580     0.5410 H       
  46 H46            4.9126    11.3647    -0.3810 H       
@<TRIPOS>BOND
   1    1    2 ar
   2    1    6 ar
   3    2    3 ar
   4    2    7 1
   5    3    4 ar
   6    3   29 1
   7    4    5 ar
   8    4   30 1
   9    5    6 ar
  10    6   18 1
  11    7    8 1
  12    8   12 ar
  13    8   11 ar
  14    9   10 ar
  15    9   13 ar
  16    9   16 1
  17   10   11 ar
  18   10   31 1
  19   11   14 1
  20   12   13 ar
  21   12   15 1
  22   13   32 1
  23   14   33 1
  24   14   34 1
  25   14   35 1
  26   15   36 1
  27   15   37 1
  28   15   38 1
  29   16   17 3
  30   18   19 1
  31   19   20 1
  32   19   39 1
  33   19   40 1
  34   20   21 am
  35   20   23 2
  36   21   22 1
  37   21   41 1
  38   22   26 ar
  39   22   25 ar
  40   24   25 ar
  41   24   28 ar
  42   24   42 1
  43   25   43 1
  44   26   27 ar
  45   26   44 1
  46   27   28 ar
  47   27   45 1
  48   28   46 1

#	End of record

