#	Name: ASD03331586
#	Creating user name:	WinNT
#	Creation time:	15. 06. 2019 20:39

#	Modifying user name:	WinNT
#	Modification time:	15. 06. 2019 20:39

#	Program:	/corina/corina34_cracker 3.40 0067  02.08.2006

@<TRIPOS>MOLECULE
ASD03331586
  52   54    0    0    0
SMALL
NO_CHARGES


@<TRIPOS>ATOM
   1 C1            -0.5860     0.6387     1.7111 C.2     
   2 C2            -0.4162    -0.7665     1.3009 C.2     
   3 N3            -1.4222    -1.6776     1.1391 N.pl3   
   4 C4            -0.8515    -2.8517     0.7809 C.2     
   5 C5             0.4921    -2.6411     0.7004 C.2     
   6 N6             0.7271    -1.3520     1.0240 N.2     
   7 C7             1.5071    -3.6410     0.3231 C.2     
   8 O8             1.1692    -4.7764     0.0477 O.2     
   9 N9             2.8096    -3.2971     0.2832 N.am    
  10 C10            3.8185    -4.2910    -0.0918 C.3     
  11 C11            5.1486    -3.9054     0.5023 C.2     
  12 C12           -2.8592    -1.4341     1.2993 C.3     
  13 C13           -3.5530    -2.7427     1.6869 C.3     
  14 C14           -3.9005    -3.5357     0.4286 C.3     
  15 O15           -2.7237    -3.8868    -0.2898 O.3     
  16 C16           -1.5874    -4.1442     0.5421 C.3     
  17 C17            3.9377    -4.3465    -1.6162 C.3     
  18 C18            4.3551    -2.9730    -2.1455 C.3     
  19 C19            4.9903    -5.3855    -2.0079 C.3     
  20 C20            2.5868    -4.7366    -2.2195 C.3     
  21 N21            0.3772     1.5040     1.8641 N.2     
  22 N22            6.1217    -4.8288     0.6322 N.am    
  23 O23            5.3435    -2.7641     0.8636 O.2     
  24 C24            7.4430    -4.4358     1.1284 C.3     
  25 C25            0.0378     2.7150     2.2349 C.2     
  26 C26           -1.2723     2.9247     2.4152 C.2     
  27 S27           -2.1239     1.4215     2.0663 S.3     
  28 H28            3.0791    -2.3915     0.5028 H       
  29 H29            3.5221    -5.2697     0.2853 H       
  30 H30           -3.0176    -0.6924     2.0823 H       
  31 H31           -3.2731    -1.0669     0.3602 H       
  32 H32           -2.8869    -3.3338     2.3154 H       
  33 H33           -4.4664    -2.5192     2.2382 H       
  34 H34           -4.4316    -4.4441     0.7126 H       
  35 H35           -4.5435    -2.9304    -0.2104 H       
  36 H36           -0.9257    -4.8544     0.0463 H       
  37 H37           -1.9190    -4.5565     1.4951 H       
  38 H38            5.3175    -2.6951    -1.7157 H       
  39 H39            4.4400    -3.0126    -3.2315 H       
  40 H40            3.6052    -2.2328    -1.8664 H       
  41 H41            4.6855    -6.3666    -1.6437 H       
  42 H42            5.0859    -5.4144    -3.0933 H       
  43 H43            5.9493    -5.1156    -1.5657 H       
  44 H44            1.8369    -3.9964    -1.9404 H       
  45 H45            2.6717    -4.7762    -3.3055 H       
  46 H46            2.2894    -5.7151    -1.8424 H       
  47 H47            5.9473    -5.7536     0.3972 H       
  48 H48            7.8748    -3.6903     0.4607 H       
  49 H49            7.3448    -4.0142     2.1287 H       
  50 H50            8.0923    -5.3105     1.1648 H       
  51 H51            0.7695     3.4948     2.3857 H       
  52 H52           -1.7287     3.8552     2.7188 H       
@<TRIPOS>BOND
   1    1    2 1
   2    1   21 2
   3    1   27 1
   4    2    3 1
   5    2    6 2
   6    3    4 1
   7    3   12 1
   8    4    5 2
   9    4   16 1
  10    5    6 1
  11    5    7 1
  12    7    8 2
  13    7    9 am
  14    9   10 1
  15    9   28 1
  16   10   11 1
  17   10   17 1
  18   10   29 1
  19   11   22 am
  20   11   23 2
  21   12   13 1
  22   12   30 1
  23   12   31 1
  24   13   14 1
  25   13   32 1
  26   13   33 1
  27   14   15 1
  28   14   34 1
  29   14   35 1
  30   15   16 1
  31   16   36 1
  32   16   37 1
  33   17   18 1
  34   17   19 1
  35   17   20 1
  36   18   38 1
  37   18   39 1
  38   18   40 1
  39   19   41 1
  40   19   42 1
  41   19   43 1
  42   20   44 1
  43   20   45 1
  44   20   46 1
  45   21   25 1
  46   22   24 1
  47   22   47 1
  48   24   48 1
  49   24   49 1
  50   24   50 1
  51   25   26 2
  52   25   51 1
  53   26   27 1
  54   26   52 1

#	End of record

