#	Name: ASD05143126
#	Creating user name:	WinNT
#	Creation time:	15. 06. 2019 20:57

#	Modifying user name:	WinNT
#	Modification time:	15. 06. 2019 20:57

#	Program:	/corina/corina34_cracker 3.40 0067  02.08.2006

@<TRIPOS>MOLECULE
ASD05143126
 149  152    0    0    0
SMALL
NO_CHARGES


@<TRIPOS>ATOM
   1 C1            -0.0345     2.1661     4.4073 C.2     
   2 C2             0.6847     1.0334     5.0936 C.3     
   3 N3             0.6482     3.0162     3.6151 N.am    
   4 O4            -1.2286     2.3096     4.5640 O.2     
   5 C5            -0.0509     4.1173     2.9480 C.3     
   6 C6            -1.1379     3.5509     2.0323 C.3     
   7 C7            -0.6823     5.0120     3.9834 C.2     
   8 C8            -0.4871     2.7438     0.9071 C.3     
   9 C9            -1.5741     2.1774    -0.0087 C.3     
  10 N10           -0.9510     1.4046    -1.0861 N.pl3   
  11 C11           -1.7349     0.7965    -2.0380 C.2     
  12 N12           -1.1502     0.0713    -3.0491 N.pl3   
  13 N13           -3.0323     0.9076    -1.9818 N.2     
  14 O14           -0.8828     4.5948     5.1044 O.2     
  15 N15           -1.0243     6.2758     3.6636 N.am    
  16 C16           -1.6381     7.1456     4.6700 C.3     
  17 C17           -0.6038     8.1560     5.1701 C.3     
  18 C18            0.7057     7.4316     5.4877 C.3     
  19 C19            1.5560     7.3620     4.2455 C.2     
  20 N20            2.8830     7.6739     4.3384 N.am    
  21 C21            3.6478     7.5740     3.0745 C.3     
  22 C22            3.5578     8.9133     2.3402 C.3     
  23 C23            3.8524     8.7002     0.8540 C.3     
  24 C24            4.6589     9.8849     0.3183 C.3     
  25 N25            4.2230    10.1724    -1.0630 N.am    
  26 C26            6.1261     9.5406     0.3235 C.2     
  27 N27            6.8332     9.6216     1.4679 N.am    
  28 O28            6.6704     9.1905    -0.7022 O.2     
  29 C29            3.2909    11.1524    -1.2150 C.2     
  30 O30            2.8627    11.7477    -0.2490 O.2     
  31 C31            2.7980    11.4889    -2.5988 C.3     
  32 N32            1.5445    12.2680    -2.4760 N.am    
  33 C33            3.8515    12.3226    -3.3309 C.3     
  34 C34            0.3989    11.5834    -2.7682 C.2     
  35 O35            0.4439    10.4199    -3.1076 O.2     
  36 C36           -0.9219    12.3011    -2.6605 C.3     
  37 N37           -1.9841    11.3091    -2.4005 N.am    
  38 C38           -0.8664    13.3065    -1.5085 C.3     
  39 C39           -2.8745    11.6136    -1.4167 C.2     
  40 O40           -2.7750    12.6510    -0.7964 O.2     
  41 C41           -3.9859    10.6432    -1.1100 C.3     
  42 C42            3.4101    12.5531    -4.7532 C.2     
  43 C43            2.5206    13.6157    -5.2282 C.ar    
  44 C44            2.3995    13.4293    -6.6172 C.ar    
  45 N45            3.1632    12.3324    -6.9479 N.pl3   
  46 C46            3.7622    11.8273    -5.8262 C.2     
  47 C47            1.8460    14.6674    -4.6049 C.ar    
  48 C48            1.0705    15.5112    -5.3487 C.ar    
  49 C49            0.9473    15.3312    -6.7198 C.ar    
  50 C50            1.6048    14.3008    -7.3550 C.ar    
  51 N51           -4.1969    10.6111     0.3553 N.am    
  52 C52           -3.5995     9.2475    -1.6035 C.3     
  53 C53           -4.7475     8.2983    -1.3753 C.ar    
  54 C54           -5.8116     8.2760    -2.2570 C.ar    
  55 C55           -6.8648     7.4052    -2.0475 C.ar    
  56 C56           -6.8534     6.5566    -0.9567 C.ar    
  57 C57           -5.7885     6.5782    -0.0752 C.ar    
  58 C58           -4.7336     7.4457    -0.2869 C.ar    
  59 C59           -2.8021     7.8805     4.0564 C.2     
  60 O60           -3.9337     7.6673     4.4368 O.2     
  61 C61           -0.5300    12.5741    -0.2080 C.3     
  62 C62           -0.6097    13.5538     0.9644 C.3     
  63 N63           -0.2876    12.8524     2.2096 N.pl3   
  64 C64           -0.2948    13.5335     3.4039 C.2     
  65 N65            0.0075    12.8753     4.5725 N.pl3   
  66 N66           -0.5882    14.8033     3.4282 N.2     
  67 N67           -2.5649     8.7868     3.0687 N.am    
  68 C68           -3.7439     9.4756     2.5066 C.3     
  69 C69           -3.5755     9.5877     1.0132 C.2     
  70 O70           -2.9005     8.7834     0.4062 O.2     
  71 C71           -3.8594    10.8743     3.1159 C.3     
  72 C72           -4.1341    10.7575     4.5930 C.2     
  73 C73           -4.2902    11.9871     5.4217 C.2     
  74 O74           -4.1960    13.0820     4.9066 O.2     
  75 N75           -4.5359    11.8827     6.7427 N.am    
  76 C76           -5.8241     9.2013    -3.4464 C.3     
  77 O77           -4.2279     9.6679     5.1056 O.2     
  78 F78           -6.9942     8.9955    -4.1851 F       
  79 F79           -5.7782    10.5282    -3.0055 F       
  80 F80           -4.7114     8.9391    -4.2529 F       
  81 O81            1.0714     7.0348     3.1830 O.2     
  82 H82            1.7423     1.0629     4.8317 H       
  83 H83            0.5748     1.1344     6.1733 H       
  84 H84            0.2571     0.0837     4.7720 H       
  85 H85            1.6025     2.8990     3.4867 H       
  86 H86            0.6600     4.6930     2.3553 H       
  87 H87           -1.7978     2.9031     2.6093 H       
  88 H88           -1.7158     4.3701     1.6045 H       
  89 H89            0.1729     3.3916     0.3301 H       
  90 H90            0.0908     1.9246     1.3348 H       
  91 H91           -2.2341     1.5296     0.5683 H       
  92 H92           -2.1520     2.9966    -0.4365 H       
  93 H93            0.0145     1.3220    -1.1279 H       
  94 H94           -0.1846    -0.0114    -3.0909 H       
  95 H95           -1.7032    -0.3577    -3.7206 H       
  96 H96           -3.5854     0.4786    -2.6534 H       
  97 H97           -0.8640     6.6095     2.7670 H       
  98 H98           -1.9899     6.5415     5.5064 H       
  99 H99           -0.4264     8.9059     4.3992 H       
 100 H100          -0.9775     8.6427     6.0710 H       
 101 H101           1.2423     7.9754     6.2652 H       
 102 H102           0.4873     6.4219     5.8354 H       
 103 H103           3.2954     7.9423     5.1743 H       
 104 H104           4.6909     7.3474     3.2951 H       
 105 H105           3.2238     6.7863     2.4517 H       
 106 H106           2.5552     9.3248     2.4566 H       
 107 H107           4.2864     9.6072     2.7592 H       
 108 H108           4.4260     7.7823     0.7253 H       
 109 H109           2.9138     8.6219     0.3052 H       
 110 H110           4.4847    10.7590     0.9457 H       
 111 H111           4.5821     9.6877    -1.8226 H       
 112 H112           6.3978     9.9016     2.2883 H       
 113 H113           7.7776     9.4000     1.4713 H       
 114 H114           2.6050    10.5699    -3.1522 H       
 115 H115           1.5374    13.2000    -2.2070 H       
 116 H116           3.9701    13.2819    -2.8272 H       
 117 H117           4.8027    11.7903    -3.3274 H       
 118 H118          -1.1308    12.8237    -3.5940 H       
 119 H119          -2.0442    10.4825    -2.9046 H       
 120 H120          -0.0990    14.0528    -1.7142 H       
 121 H121          -1.8340    13.7984    -1.4086 H       
 122 H122          -4.9016    10.9679    -1.6042 H       
 123 H123           3.2645    11.9735    -7.8434 H       
 124 H124           4.4152    10.9673    -5.8058 H       
 125 H125           1.9365    14.8130    -3.5386 H       
 126 H126           0.5489    16.3245    -4.8662 H       
 127 H127           0.3304    16.0063    -7.2942 H       
 128 H128           1.5028    14.1694    -8.4221 H       
 129 H129          -4.7385    11.2710     0.8160 H       
 130 H130          -3.3690     9.2895    -2.6680 H       
 131 H131          -2.7244     8.8978    -1.0558 H       
 132 H132          -7.6966     7.3883    -2.7361 H       
 133 H133          -7.6764     5.8768    -0.7927 H       
 134 H134          -5.7797     5.9153     0.7774 H       
 135 H135          -3.9017     7.4626     0.4017 H       
 136 H136          -1.2419    11.7633    -0.0531 H       
 137 H137           0.4783    12.1650    -0.2718 H       
 138 H138           0.1022    14.3645     0.8095 H       
 139 H139          -1.6180    13.9629     1.0282 H       
 140 H140          -0.0693    11.9075     2.1915 H       
 141 H141           0.2258    11.9304     4.5544 H       
 142 H142           0.0024    13.3559     5.4151 H       
 143 H143          -0.5933    15.2838     4.2708 H       
 144 H144          -1.6672     8.9710     2.7506 H       
 145 H145          -4.6433     8.9020     2.7307 H       
 146 H146          -2.9262    11.4160     2.9616 H       
 147 H147          -4.6761    11.4134     2.6359 H       
 148 H148          -4.6112    11.0076     7.1544 H       
 149 H149          -4.6375    12.6826     7.2819 H       
@<TRIPOS>BOND
   1    1    2 1
   2    1    3 am
   3    1    4 2
   4    2   82 1
   5    2   83 1
   6    2   84 1
   7    3    5 1
   8    3   85 1
   9    5    6 1
  10    5    7 1
  11    5   86 1
  12    6    8 1
  13    6   87 1
  14    6   88 1
  15    7   14 2
  16    7   15 am
  17    8    9 1
  18    8   89 1
  19    8   90 1
  20    9   10 1
  21    9   91 1
  22    9   92 1
  23   10   11 1
  24   10   93 1
  25   11   12 1
  26   11   13 2
  27   12   94 1
  28   12   95 1
  29   13   96 1
  30   15   16 1
  31   15   97 1
  32   16   17 1
  33   16   59 1
  34   16   98 1
  35   17   18 1
  36   17   99 1
  37   17  100 1
  38   18   19 1
  39   18  101 1
  40   18  102 1
  41   19   20 am
  42   19   81 2
  43   20   21 1
  44   20  103 1
  45   21   22 1
  46   21  104 1
  47   21  105 1
  48   22   23 1
  49   22  106 1
  50   22  107 1
  51   23   24 1
  52   23  108 1
  53   23  109 1
  54   24   25 1
  55   24   26 1
  56   24  110 1
  57   25   29 am
  58   25  111 1
  59   26   27 am
  60   26   28 2
  61   27  112 1
  62   27  113 1
  63   29   30 2
  64   29   31 1
  65   31   32 1
  66   31   33 1
  67   31  114 1
  68   32   34 am
  69   32  115 1
  70   33   42 1
  71   33  116 1
  72   33  117 1
  73   34   35 2
  74   34   36 1
  75   36   37 1
  76   36   38 1
  77   36  118 1
  78   37   39 am
  79   37  119 1
  80   38   61 1
  81   38  120 1
  82   38  121 1
  83   39   40 2
  84   39   41 1
  85   41   51 1
  86   41   52 1
  87   41  122 1
  88   42   43 1
  89   42   46 2
  90   43   44 ar
  91   43   47 ar
  92   44   45 1
  93   44   50 ar
  94   45   46 1
  95   45  123 1
  96   46  124 1
  97   47   48 ar
  98   47  125 1
  99   48   49 ar
 100   48  126 1
 101   49   50 ar
 102   49  127 1
 103   50  128 1
 104   51   69 am
 105   51  129 1
 106   52   53 1
 107   52  130 1
 108   52  131 1
 109   53   54 ar
 110   53   58 ar
 111   54   55 ar
 112   54   76 1
 113   55   56 ar
 114   55  132 1
 115   56   57 ar
 116   56  133 1
 117   57   58 ar
 118   57  134 1
 119   58  135 1
 120   59   60 2
 121   59   67 am
 122   61   62 1
 123   61  136 1
 124   61  137 1
 125   62   63 1
 126   62  138 1
 127   62  139 1
 128   63   64 1
 129   63  140 1
 130   64   65 1
 131   64   66 2
 132   65  141 1
 133   65  142 1
 134   66  143 1
 135   67   68 1
 136   67  144 1
 137   68   69 1
 138   68   71 1
 139   68  145 1
 140   69   70 2
 141   71   72 1
 142   71  146 1
 143   71  147 1
 144   72   73 1
 145   72   77 2
 146   73   74 2
 147   73   75 am
 148   75  148 1
 149   75  149 1
 150   76   78 1
 151   76   79 1
 152   76   80 1

#	End of record

