#	Name: ASD01912743
#	Creating user name:	WinNT
#	Creation time:	15. 06. 2019 20:00

#	Modifying user name:	WinNT
#	Modification time:	15. 06. 2019 20:00

#	Program:	/corina/corina34_cracker 3.40 0067  02.08.2006

@<TRIPOS>MOLECULE
ASD01912743
  43   46    0    0    0
SMALL
NO_CHARGES


@<TRIPOS>ATOM
   1 C1            -0.0343     1.2970     0.0963 C.2     
   2 N2            -0.0334    -0.0699    -0.0117 N.pl3   
   3 C3            -1.2463    -0.7376    -0.0983 C.2     
   4 C4            -2.3980    -0.0802    -0.0783 C.2     
   5 N5            -2.4531     1.2978     0.0286 N.am    
   6 C6            -1.3104     2.0138     0.1227 C.2     
   7 C7             1.2884     1.6925     0.1643 C.2     
   8 C8             2.0265     0.5121     0.0916 C.2     
   9 N9             1.1831    -0.4875    -0.0109 N.2     
  10 O10           -1.3415     3.2273     0.2179 O.2     
  11 C11           -3.6844     1.9462     0.0451 C.ar    
  12 C12            3.5293     0.4036     0.1244 C.3     
  13 O13            4.0987     1.7089     0.2430 O.3     
  14 C14            5.4546     1.7888     0.2866 C.ar    
  15 C15            6.0744     3.0247     0.4011 C.ar    
  16 C16            7.4529     3.1034     0.4451 C.ar    
  17 C17            8.2148     1.9517     0.3753 C.ar    
  18 C18            7.5995     0.7188     0.2607 C.ar    
  19 C19            6.2212     0.6343     0.2224 C.ar    
  20 C20           -4.2707     2.3835    -1.1425 C.ar    
  21 C21           -5.4950     3.0220    -1.0736 C.ar    
  22 C22           -5.4887     2.7665     1.2124 C.ar    
  23 N23           -4.3228     2.1535     1.1925 N.ar    
  24 N24           -6.0670     3.1964     0.1087 N.ar    
  25 C25           -3.5866     2.1659    -2.4675 C.3     
  26 C26           -6.1806     2.9819     2.5337 C.3     
  27 H27           -1.2529    -1.8142    -0.1839 H       
  28 H28           -3.3205    -0.6374    -0.1481 H       
  29 H29            1.6684     2.6994     0.2539 H       
  30 H30            3.8312    -0.2034     0.9780 H       
  31 H31            3.8800    -0.0636    -0.7958 H       
  32 H32            5.4797     3.9246     0.4553 H       
  33 H33            7.9359     4.0653     0.5339 H       
  34 H34            9.2924     2.0153     0.4099 H       
  35 H35            8.1969    -0.1793     0.2056 H       
  36 H36            5.7410    -0.3289     0.1330 H       
  37 H37           -5.9790     3.3746    -1.9723 H       
  38 H38           -3.8160     1.1656    -2.8349 H       
  39 H39           -3.9402     2.9064    -3.1849 H       
  40 H40           -2.5088     2.2682    -2.3411 H       
  41 H41           -5.8702     3.9382     2.9547 H       
  42 H42           -7.2600     2.9847     2.3823 H       
  43 H43           -5.9120     2.1786     3.2197 H       
@<TRIPOS>BOND
   1    1    2 1
   2    1    7 2
   3    1    6 1
   4    2    3 1
   5    2    9 1
   6    3    4 2
   7    3   27 1
   8    4    5 1
   9    4   28 1
  10    5    6 am
  11    5   11 1
  12    6   10 2
  13    7    8 1
  14    7   29 1
  15    8    9 2
  16    8   12 1
  17   11   20 ar
  18   11   23 ar
  19   12   13 1
  20   12   30 1
  21   12   31 1
  22   13   14 1
  23   14   15 ar
  24   14   19 ar
  25   15   16 ar
  26   15   32 1
  27   16   17 ar
  28   16   33 1
  29   17   18 ar
  30   17   34 1
  31   18   19 ar
  32   18   35 1
  33   19   36 1
  34   20   21 ar
  35   20   25 1
  36   21   24 ar
  37   21   37 1
  38   22   23 ar
  39   22   26 1
  40   22   24 ar
  41   25   38 1
  42   25   39 1
  43   25   40 1
  44   26   41 1
  45   26   42 1
  46   26   43 1

#	End of record

