#	Name: ASD00451018
#	Creating user name:	WinNT
#	Creation time:	15. 06. 2019 18:36

#	Modifying user name:	WinNT
#	Modification time:	15. 06. 2019 18:36

#	Program:	/corina/corina34_cracker 3.40 0067  02.08.2006

@<TRIPOS>MOLECULE
ASD00451018
  45   48    0    0    0
SMALL
NO_CHARGES


@<TRIPOS>ATOM
   1 C1             0.0070     1.4673    -0.1684 C.ar    
   2 C2             0.0316     0.0818    -0.2374 C.ar    
   3 N3             1.2087     2.1901    -0.1439 N.am    
   4 C4            -1.2100     2.1392    -0.1293 C.ar    
   5 C5            -1.1523    -0.6300    -0.2620 C.ar    
   6 C6             2.2896     1.6796     0.4787 C.2     
   7 C7            -2.3935     1.4257    -0.1592 C.ar    
   8 C8            -2.3663     0.0395    -0.2181 C.ar    
   9 O9             2.1970     0.6406     1.1035 O.2     
  10 N10            3.4730     2.3207     0.4086 N.am    
  11 O11           -3.5304    -0.6621    -0.2481 O.3     
  12 C12            4.5627     1.8619     1.1572 C.ar    
  13 C13           -3.9195    -1.3002     0.8857 C.ar    
  14 C14            5.8583     2.1160     0.7274 C.ar    
  15 C15            4.3505     1.1563     2.3345 C.ar    
  16 C16           -5.1459    -1.9567     0.9529 C.ar    
  17 C17           -3.1007    -1.3215     2.0126 C.ar    
  18 C18            6.9318     1.6617     1.4685 C.ar    
  19 C19            5.4280     0.7049     3.0709 C.ar    
  20 N20           -6.1889    -2.1422     0.0478 N.am    
  21 C21           -5.5118    -2.6018     2.1345 C.ar    
  22 C22           -3.5307    -1.9809     3.1465 C.ar    
  23 C23            6.7173     0.9547     2.6371 C.ar    
  24 C24           -7.1466    -2.8691     0.6549 C.2     
  25 N25           -6.7665    -3.1561     1.9137 N.am    
  26 N26           -4.7006    -2.5902     3.1815 N.ar    
  27 O27           -8.1977    -3.2095     0.1449 O.2     
  28 H28            1.2619     3.0574    -0.5750 H       
  29 H29            3.5694     3.1002    -0.1606 H       
  30 H30           -6.2200    -1.8060    -0.8616 H       
  31 H31           -7.2804    -3.6683     2.5575 H       
  32 F32           -1.2355     3.4883    -0.0616 F       
  33 C33            8.3384     1.9366     1.0025 C.3     
  34 F34            8.7794     3.1499     1.5415 F       
  35 F35            9.1808     0.9038     1.4278 F       
  36 F36            8.3606     2.0113    -0.3943 F       
  37 H37            0.9764    -0.4403    -0.2722 H       
  38 H38           -1.1324    -1.7084    -0.3157 H       
  39 H39           -3.3391     1.9466    -0.1286 H       
  40 H40            6.0265     2.6679    -0.1856 H       
  41 H41            3.3440     0.9613     2.6740 H       
  42 H42           -2.1401    -0.8279     1.9990 H       
  43 H43            5.2637     0.1562     3.9865 H       
  44 H44           -2.8976    -1.9987     4.0212 H       
  45 H45            7.5583     0.6006     3.2148 H       
@<TRIPOS>BOND
   1    1    2 ar
   2    1    3 1
   3    1    4 ar
   4    2    5 ar
   5    2   37 1
   6    3   28 1
   7    3    6 am
   8    4   32 1
   9    4    7 ar
  10    5    8 ar
  11    5   38 1
  12    6    9 2
  13    6   10 am
  14    7    8 ar
  15    7   39 1
  16    8   11 1
  17   10   12 1
  18   10   29 1
  19   11   13 1
  20   12   14 ar
  21   12   15 ar
  22   13   16 ar
  23   13   17 ar
  24   14   18 ar
  25   14   40 1
  26   15   19 ar
  27   15   41 1
  28   16   20 1
  29   16   21 ar
  30   17   22 ar
  31   17   42 1
  32   18   23 ar
  33   18   33 1
  34   19   23 ar
  35   19   43 1
  36   20   30 1
  37   20   24 am
  38   21   26 ar
  39   21   25 1
  40   22   26 ar
  41   22   44 1
  42   23   45 1
  43   24   25 am
  44   24   27 2
  45   25   31 1
  46   33   34 1
  47   33   35 1
  48   33   36 1

#	End of record

