#	Name: ASD01000156
#	Creating user name:	WinNT
#	Creation time:	15. 06. 2019 18:54

#	Modifying user name:	WinNT
#	Modification time:	15. 06. 2019 18:54

#	Program:	/corina/corina34_cracker 3.40 0067  02.08.2006

@<TRIPOS>MOLECULE
ASD01000156
  54   57    0    0    0
SMALL
NO_CHARGES


@<TRIPOS>ATOM
   1 C1             0.0697     1.4205    -0.3183 C.ar    
   2 C2            -2.4840    -0.4055    -0.3015 C.ar    
   3 C3            -0.0114    -0.0211     0.0020 C.3     
   4 C4             0.6744     4.0391    -1.0234 C.ar    
   5 C5            -0.6173     3.5882    -0.9476 C.ar    
   6 C6            -0.9284     2.2652    -0.5548 C.ar    
   7 C7             1.4034     1.8802    -0.3701 C.ar    
   8 C8             1.7075     3.1734    -0.7122 C.ar    
   9 C9            -3.5696    -1.2845    -0.0704 C.ar    
  10 C10           -3.3891    -2.5472     0.4292 C.ar    
  11 C11           -2.1077    -2.9808     0.7180 C.ar    
  12 C12           -1.0600    -2.1178     0.5162 C.ar    
  13 C13           -1.2629    -0.8106     0.0257 C.ar    
  14 C14            0.9127    -0.7213    -0.9607 C.ar    
  15 C15            1.9694    -1.4732    -0.4816 C.ar    
  16 C16            2.8170    -2.1153    -1.3646 C.ar    
  17 C17            2.6078    -2.0061    -2.7269 C.ar    
  18 C18            1.5509    -1.2552    -3.2058 C.ar    
  19 C19            0.7006    -0.6164    -2.3225 C.ar    
  20 S20            0.7483    -0.2234     1.6368 S.3     
  21 C21           -0.3796     0.6882     2.7265 C.3     
  22 C22            0.0488     0.4929     4.1822 C.3     
  23 C23           -0.8881     1.2502     5.0875 C.2     
  24 N24            0.0053    -0.9366     4.5179 N.3     
  25 O25           -0.7360     2.5733     5.2554 O.3     
  26 O26           -1.7763     0.6665     5.6623 O.2     
  27 C27           -2.4294     2.1257    -0.4114 C.3     
  28 C28           -2.9958     0.8552    -0.9629 C.3     
  29 C29            1.3233    -1.1358    -4.6907 C.3     
  30 F30            2.3024    -1.8660    -5.3728 F       
  31 F31            0.0581    -1.6400    -5.0106 F       
  32 F32            1.3980     0.2095    -5.0672 F       
  33 H33            0.8829     5.0558    -1.3218 H       
  34 H34           -1.4228     4.2636    -1.1954 H       
  35 H35            2.2051     1.1962    -0.1339 H       
  36 H36            2.7336     3.5092    -0.7378 H       
  37 H37           -4.5713    -0.9489    -0.2948 H       
  38 H38           -4.2365    -3.1958     0.5958 H       
  39 H39           -1.9354    -3.9780     1.0951 H       
  40 H40           -0.0557    -2.4472     0.7385 H       
  41 H41            2.1328    -1.5585     0.5825 H       
  42 H42            3.6428    -2.7021    -0.9903 H       
  43 H43            3.2705    -2.5073    -3.4168 H       
  44 H44           -0.1275    -0.0327    -2.6966 H       
  45 H45           -0.3473     1.7489     2.4774 H       
  46 H46           -1.3948     0.3144     2.5933 H       
  47 H47            1.0640     0.8667     4.3155 H       
  48 H48           -0.9261    -1.3070     4.4023 H       
  49 H49            0.6724    -1.4575     3.9686 H       
  50 H50           -1.3612     3.0157     5.8457 H       
  51 H51           -2.6813     2.1843     0.6474 H       
  52 H52           -2.9036     2.9643    -0.9213 H       
  53 H53           -2.7610     0.8062    -2.0262 H       
  54 H54           -4.0799     0.8855    -0.8544 H       
@<TRIPOS>BOND
   1    1    3 1
   2    1    7 ar
   3    1    6 ar
   4    2    9 ar
   5    2   13 ar
   6    2   28 1
   7    3   14 1
   8    3   20 1
   9    3   13 1
  10    4    5 ar
  11    4    8 ar
  12    4   33 1
  13    5    6 ar
  14    5   34 1
  15    6   27 1
  16    7    8 ar
  17    7   35 1
  18    8   36 1
  19    9   10 ar
  20    9   37 1
  21   10   11 ar
  22   10   38 1
  23   11   12 ar
  24   11   39 1
  25   12   13 ar
  26   12   40 1
  27   14   15 ar
  28   14   19 ar
  29   15   16 ar
  30   15   41 1
  31   16   17 ar
  32   16   42 1
  33   17   18 ar
  34   17   43 1
  35   18   19 ar
  36   18   29 1
  37   19   44 1
  38   20   21 1
  39   21   22 1
  40   21   45 1
  41   21   46 1
  42   22   23 1
  43   22   24 1
  44   22   47 1
  45   23   25 1
  46   23   26 2
  47   24   48 1
  48   24   49 1
  49   25   50 1
  50   27   28 1
  51   27   51 1
  52   27   52 1
  53   28   53 1
  54   28   54 1
  55   29   30 1
  56   29   31 1
  57   29   32 1

#	End of record

