#	Name: ASD01915737
#	Creating user name:	WinNT
#	Creation time:	15. 06. 2019 20:06

#	Modifying user name:	WinNT
#	Modification time:	15. 06. 2019 20:06

#	Program:	/corina/corina34_cracker 3.40 0067  02.08.2006

@<TRIPOS>MOLECULE
ASD01915737
  40   42    0    0    0
SMALL
NO_CHARGES


@<TRIPOS>ATOM
   1 C1            -0.4100     1.7398     0.1050 C.ar    
   2 C2            -0.5427     0.3895     0.3737 C.ar    
   3 N3             0.5004    -0.3406     0.7070 N.ar    
   4 C4             1.7184     0.1809     0.7999 C.ar    
   5 C5             1.9317     1.5319     0.5451 C.ar    
   6 C6             0.8479     2.3307     0.1897 C.ar    
   7 C7            -1.9019    -0.2552     0.2840 C.3     
   8 O8             1.0137     3.6532    -0.0674 O.3     
   9 C9             2.2653     4.1719     0.0389 C.ar    
  10 C10            3.1961     3.9763    -0.9710 C.ar    
  11 N11            4.4115     4.4772    -0.8719 N.ar    
  12 C12            4.7903     5.1779     0.1788 C.ar    
  13 C13            3.9188     5.4150     1.2256 C.ar    
  14 C14            2.6298     4.9117     1.1598 C.ar    
  15 C15            2.8600    -0.6837     1.1788 C.2     
  16 N16            2.6602    -1.9932     1.4273 N.am    
  17 O17            3.9766    -0.2123     1.2654 O.2     
  18 C18            3.7465    -2.8279     1.6803 C.ar    
  19 C19            3.5457    -4.1963     1.8206 C.ar    
  20 C20            4.6336    -5.0141     2.0713 C.ar    
  21 C21            5.8897    -4.4324     2.1733 C.ar    
  22 C22            6.0160    -3.0653     2.0230 C.ar    
  23 N23            4.9614    -2.3113     1.7796 N.ar    
  24 C24            7.1030    -5.2836     2.4459 C.3     
  25 H25           -1.2721     2.3285    -0.1719 H       
  26 H26            2.9226     1.9545     0.6218 H       
  27 H27           -2.0629    -0.6242    -0.7289 H       
  28 H28           -1.9567    -1.0866     0.9867 H       
  29 H29           -2.6692     0.4791     0.5294 H       
  30 H30            2.9223     3.4074    -1.8473 H       
  31 H31            5.7950     5.5715     0.2226 H       
  32 H32            4.2379     5.9894     2.0827 H       
  33 H33            1.9278     5.0818     1.9627 H       
  34 H34            1.7600    -2.3545     1.4301 H       
  35 H35            2.5540    -4.6155     1.7354 H       
  36 H36            4.5081    -6.0807     2.1852 H       
  37 H37            6.9913    -2.6082     2.1019 H       
  38 H38            7.5353    -5.6133     1.5012 H       
  39 H39            7.8395    -4.7002     2.9985 H       
  40 H40            6.8119    -6.1531     3.0353 H       
@<TRIPOS>BOND
   1    1    2 ar
   2    1    6 ar
   3    1   25 1
   4    2    3 ar
   5    2    7 1
   6    3    4 ar
   7    4    5 ar
   8    4   15 1
   9    5    6 ar
  10    5   26 1
  11    6    8 1
  12    7   27 1
  13    7   28 1
  14    7   29 1
  15    8    9 1
  16    9   10 ar
  17    9   14 ar
  18   10   11 ar
  19   10   30 1
  20   11   12 ar
  21   12   13 ar
  22   12   31 1
  23   13   14 ar
  24   13   32 1
  25   14   33 1
  26   15   16 am
  27   15   17 2
  28   16   18 1
  29   16   34 1
  30   18   19 ar
  31   18   23 ar
  32   19   20 ar
  33   19   35 1
  34   20   21 ar
  35   20   36 1
  36   21   22 ar
  37   21   24 1
  38   22   23 ar
  39   22   37 1
  40   24   38 1
  41   24   39 1
  42   24   40 1

#	End of record

