#	Name: ASD02448134
#	Creating user name:	WinNT
#	Creation time:	15. 06. 2019 20:21

#	Modifying user name:	WinNT
#	Modification time:	15. 06. 2019 20:21

#	Program:	/corina/corina34_cracker 3.40 0067  02.08.2006

@<TRIPOS>MOLECULE
ASD02448134
  83   89    0    0    0
SMALL
NO_CHARGES


@<TRIPOS>ATOM
   1 C1            -0.0482    -6.5832     3.1351 C.ar    
   2 C2             0.4380    -5.4516     2.5092 C.ar    
   3 C3             0.3486    -5.3268     1.1286 C.ar    
   4 C4            -0.2294    -6.3395     0.3780 C.ar    
   5 C5            -0.7172    -7.4755     1.0094 C.ar    
   6 C6            -0.6249    -7.5942     2.3906 C.ar    
   7 N7            -1.3006    -8.4975     0.2571 N.am    
   8 C8            -1.4126    -9.9208     0.6019 C.3     
   9 C9            -2.1093   -10.6878    -0.4754 C.2     
  10 N10           -2.4928    -9.9536    -1.5293 N.am    
  11 S11           -2.0362    -8.3800    -1.2357 S.o2    
  12 O12           -2.3114   -11.8814    -0.4019 O.2     
  13 O13           -3.2267    -7.6227    -1.0661 O.2     
  14 O14           -1.0178    -8.0571    -2.1726 O.2     
  15 N15            0.8420    -4.1777     0.4947 N.pl3   
  16 C16            1.7723    -4.1405    -0.5095 C.2     
  17 C17            0.4816    -2.8942     0.7585 C.2     
  18 N18            1.1495    -2.0984    -0.0291 N.2     
  19 C19            1.9549    -2.8317    -0.8243 C.2     
  20 C20            2.8770    -2.3027    -1.8592 C.ar    
  21 C21            2.9662    -0.9288    -2.0806 C.ar    
  22 C22            3.6613    -3.1768    -2.6095 C.ar    
  23 C23            4.5177    -2.6801    -3.5707 C.ar    
  24 C24            4.5992    -1.3155    -3.7908 C.ar    
  25 C25            3.8267    -0.4420    -3.0452 C.ar    
  26 C26           -0.5260    -2.4615     1.7922 C.3     
  27 C27           -1.8701    -2.2754     1.1365 C.ar    
  28 C28           -2.7140    -3.3595     0.9752 C.ar    
  29 C29           -2.2576    -1.0202     0.7034 C.ar    
  30 C30           -3.4878    -0.8438     0.1031 C.ar    
  31 C31           -4.3399    -1.9334    -0.0668 C.ar    
  32 C32           -3.9462    -3.1949     0.3758 C.ar    
  33 C33           -5.6633    -1.7501    -0.7114 C.ar    
  34 C34           -6.5144    -2.8411    -0.8805 C.ar    
  35 C35           -6.0600    -0.4855    -1.1436 C.ar    
  36 C36           -7.2902    -0.3173    -1.7425 C.ar    
  37 C37           -8.1351    -1.4077    -1.9154 C.ar    
  38 C38           -7.7439    -2.6686    -1.4798 C.ar    
  39 Cl39           5.6793    -0.6976    -5.0012 Cl      
  40 Cl40           1.9972     0.1674    -1.1462 Cl      
  41 N41           -9.3802    -1.2352    -2.5219 N.pl3   
  42 C42          -10.2713    -2.3836    -2.7046 C.3     
  43 C43          -11.5609    -1.9247    -3.3881 C.3     
  44 C44          -12.4380    -3.1411    -3.6915 C.3     
  45 C45          -13.7276    -2.6822    -4.3751 C.3     
  46 C46          -14.4833    -1.7267    -3.4495 C.3     
  47 C47          -13.6062    -0.5103    -3.1461 C.3     
  48 C48          -12.3166    -0.9692    -2.4625 C.3     
  49 H49            0.0266    -6.6797     4.2081 H       
  50 H50            0.8878    -4.6630     3.0940 H       
  51 H51           -0.3003    -6.2444    -0.6954 H       
  52 H52           -1.0037    -8.4778     2.8827 H       
  53 H53           -0.4138   -10.3331     0.7449 H       
  54 H54           -1.9740   -10.0199     1.5309 H       
  55 H55           -2.9548   -10.2792    -2.3176 H       
  56 H56            2.2655    -4.9875    -0.9631 H       
  57 H57            3.5991    -4.2414    -2.4388 H       
  58 H58            5.1260    -3.3570    -4.1522 H       
  59 H59            3.8936     0.6215    -3.2209 H       
  60 H60           -0.6022    -3.2244     2.5670 H       
  61 H61           -0.2065    -1.5202     2.2393 H       
  62 H62           -2.4079    -4.3366     1.3186 H       
  63 H63           -1.5965    -0.1765     0.8356 H       
  64 H64           -3.7896     0.1369    -0.2340 H       
  65 H65           -4.6025    -4.0428     0.2464 H       
  66 H66           -6.2107    -3.8209    -0.5426 H       
  67 H67           -5.4041     0.3619    -1.0092 H       
  68 H68           -7.5981     0.6623    -2.0772 H       
  69 H69           -8.4017    -3.5144    -1.6151 H       
  70 H70           -9.6555    -0.3550    -2.8224 H       
  71 H71           -9.7776    -3.1315    -3.3250 H       
  72 H72          -10.5094    -2.8169    -1.7332 H       
  73 H73          -11.3164    -1.4119    -4.3184 H       
  74 H74          -11.8996    -3.8218    -4.3510 H       
  75 H75          -12.6825    -3.6539    -2.7613 H       
  76 H76          -13.4831    -2.1695    -5.3054 H       
  77 H77          -14.3525    -3.5488    -4.5912 H       
  78 H78          -15.4021    -1.3998    -3.9364 H       
  79 H79          -14.7278    -2.2395    -2.5192 H       
  80 H80          -13.3618     0.0024    -4.0763 H       
  81 H81          -14.1446     0.1704    -2.4866 H       
  82 H82          -12.5611    -1.4820    -1.5322 H       
  83 H83          -11.6918    -0.1026    -2.2464 H       
@<TRIPOS>BOND
   1    1    2 ar
   2    1    6 ar
   3    1   49 1
   4    2    3 ar
   5    2   50 1
   6    3    4 ar
   7    3   15 1
   8    4    5 ar
   9    4   51 1
  10    5    6 ar
  11    5    7 1
  12    6   52 1
  13    7    8 1
  14    7   11 am
  15    8    9 1
  16    8   53 1
  17    8   54 1
  18    9   10 am
  19    9   12 2
  20   10   11 am
  21   10   55 1
  22   11   13 2
  23   11   14 2
  24   15   16 1
  25   15   17 1
  26   16   19 2
  27   16   56 1
  28   17   18 2
  29   17   26 1
  30   18   19 1
  31   19   20 1
  32   20   21 ar
  33   20   22 ar
  34   21   40 1
  35   21   25 ar
  36   22   23 ar
  37   22   57 1
  38   23   24 ar
  39   23   58 1
  40   24   25 ar
  41   24   39 1
  42   25   59 1
  43   26   27 1
  44   26   60 1
  45   26   61 1
  46   27   28 ar
  47   27   29 ar
  48   28   32 ar
  49   28   62 1
  50   29   30 ar
  51   29   63 1
  52   30   31 ar
  53   30   64 1
  54   31   32 ar
  55   31   33 1
  56   32   65 1
  57   33   34 ar
  58   33   35 ar
  59   34   38 ar
  60   34   66 1
  61   35   36 ar
  62   35   67 1
  63   36   37 ar
  64   36   68 1
  65   37   38 ar
  66   37   41 1
  67   38   69 1
  68   41   42 1
  69   41   70 1
  70   42   43 1
  71   42   71 1
  72   42   72 1
  73   43   44 1
  74   43   48 1
  75   43   73 1
  76   44   45 1
  77   44   74 1
  78   44   75 1
  79   45   46 1
  80   45   76 1
  81   45   77 1
  82   46   47 1
  83   46   78 1
  84   46   79 1
  85   47   48 1
  86   47   80 1
  87   47   81 1
  88   48   82 1
  89   48   83 1

#	End of record

