#	Name: ASD01814848
#	Creating user name:	WinNT
#	Creation time:	15. 06. 2019 19:33

#	Modifying user name:	WinNT
#	Modification time:	15. 06. 2019 19:33

#	Program:	/corina/corina34_cracker 3.40 0067  02.08.2006

@<TRIPOS>MOLECULE
ASD01814848
  48   51    0    0    0
SMALL
NO_CHARGES


@<TRIPOS>ATOM
   1 C1             0.1057     1.5451    -0.0309 C.2     
   2 C2             0.0814     0.1440    -0.0424 C.2     
   3 C3             1.2571    -0.5480    -0.0464 C.2     
   4 C4             2.4727     0.1560    -0.0390 C.2     
   5 N5             2.4670     1.5244    -0.0274 N.am    
   6 C6             1.2858     2.2053    -0.0239 C.2     
   7 C7             3.6823    -0.5528    -0.0430 C.2     
   8 C8             4.8688     0.1214    -0.0354 C.2     
   9 C9             4.8591     1.5285    -0.0240 C.2     
  10 C10            3.6264     2.2126    -0.0199 C.2     
  11 O11            3.6086     3.4319    -0.0105 O.2     
  12 C12            6.1187     2.2758    -0.0153 C.2     
  13 O13            6.1026     3.6247    -0.0044 O.3     
  14 O14            7.1793     1.6802    -0.0177 O.2     
  15 C15            3.6723    -2.0597    -0.0552 C.3     
  16 N16            3.7917    -2.5390    -1.4386 N.3     
  17 C17            4.0235    -3.9897    -1.4752 C.3     
  18 C18            4.0625    -4.4609    -2.9309 C.3     
  19 N19            5.1256    -3.7424    -3.6473 N.3     
  20 C20            4.8939    -2.2916    -3.6107 C.3     
  21 C21            4.8548    -1.8205    -2.1550 C.3     
  22 H22            4.9741    -4.2184    -0.9934 H       
  23 C23            5.2392    -4.1983    -4.9634 C.ar    
  24 C24            4.9133    -3.3598    -6.0206 C.ar    
  25 C25            5.6844    -5.4908    -5.2169 C.ar    
  26 C26            5.7961    -5.9385    -6.5193 C.ar    
  27 C27            5.4656    -5.1025    -7.5703 C.ar    
  28 C28            5.0272    -3.8139    -7.3216 C.ar    
  29 H29            4.2631    -5.5318    -2.9613 H       
  30 H30            3.1024    -4.2568    -3.4050 H       
  31 Cl31           6.1001    -6.5409    -3.8985 Cl      
  32 Cl32           4.6136    -2.7684    -8.6443 Cl      
  33 H33           -0.8211     2.0995    -0.0322 H       
  34 H34           -0.8608    -0.3839    -0.0477 H       
  35 H35            1.2533    -1.6280    -0.0549 H       
  36 H36            1.2927     3.2852    -0.0148 H       
  37 H37            5.8041    -0.4186    -0.0377 H       
  38 H38            6.9589     4.0739     0.0011 H       
  39 H39            4.5108    -2.4334     0.5325 H       
  40 H40            2.7379    -2.4204     0.3749 H       
  41 H41            3.2167    -4.5003    -0.9493 H       
  42 H42            5.7006    -1.7811    -4.1366 H       
  43 H43            3.9433    -2.0630    -4.0925 H       
  44 H44            4.6542    -0.7496    -2.1246 H       
  45 H45            5.8149    -2.0246    -1.6809 H       
  46 H46            4.5707    -2.3540    -5.8271 H       
  47 H47            6.1422    -6.9423    -6.7168 H       
  48 H48            5.5538    -5.4549    -8.5873 H       
@<TRIPOS>BOND
   1    1    2 1
   2    1    6 2
   3    1   33 1
   4    2    3 2
   5    2   34 1
   6    3    4 1
   7    3   35 1
   8    4    5 1
   9    4    7 2
  10    5    6 1
  11    5   10 am
  12    6   36 1
  13    7   15 1
  14    7    8 1
  15    8    9 2
  16    8   37 1
  17    9   10 1
  18    9   12 1
  19   10   11 2
  20   12   13 1
  21   12   14 2
  22   13   38 1
  23   15   16 1
  24   15   39 1
  25   15   40 1
  26   16   17 1
  27   16   21 1
  28   17   18 1
  29   17   22 1
  30   17   41 1
  31   18   19 1
  32   18   29 1
  33   18   30 1
  34   19   20 1
  35   19   23 1
  36   20   21 1
  37   20   42 1
  38   20   43 1
  39   21   44 1
  40   21   45 1
  41   23   24 ar
  42   23   25 ar
  43   24   28 ar
  44   24   46 1
  45   25   26 ar
  46   25   31 1
  47   26   27 ar
  48   26   47 1
  49   27   28 ar
  50   27   48 1
  51   28   32 1

#	End of record

