#	Name: ASD09080134
#	Creating user name:	WinNT
#	Creation time:	15. 06. 2019 21:20

#	Modifying user name:	WinNT
#	Modification time:	15. 06. 2019 21:20

#	Program:	/corina/corina34_cracker 3.40 0067  02.08.2006

@<TRIPOS>MOLECULE
ASD09080134
  61   64    0    0    0
SMALL
NO_CHARGES


@<TRIPOS>ATOM
   1 C1            -0.0167     1.3799     0.0096 C.ar    
   2 C2             0.0021    -0.0041     0.0020 C.ar    
   3 C3            -1.1844    -0.7169     0.0091 C.ar    
   4 C4            -2.3938    -0.0494     0.0242 C.ar    
   5 C5            -2.4179     1.3436     0.0324 C.ar    
   6 C6            -1.2209     2.0565     0.0305 C.ar    
   7 Cl7            1.4756     2.2669     0.0001 Cl      
   8 Cl8           -1.1526    -2.4526    -0.0017 Cl      
   9 C9            -3.7143     2.0655     0.0481 C.ar    
  10 C10           -3.7388     3.4586     0.0563 C.ar    
  11 C11           -4.9474     4.1250     0.0704 C.ar    
  12 C12           -6.1329     3.4124     0.0765 C.ar    
  13 C13           -6.1145     2.0293     0.0689 C.ar    
  14 C14           -4.9116     1.3528     0.0489 C.ar    
  15 C15           -7.4494     4.1455     0.0919 C.3     
  16 C16           -7.9073     4.4019    -1.3453 C.3     
  17 O17           -8.1766     3.1548    -1.9890 O.3     
  18 C18           -9.1783     5.2536    -1.3314 C.3     
  19 C19           -9.6362     5.5099    -2.7686 C.3     
  20 O20           -9.9510     4.2673    -3.4417 O.3     
  21 C21          -10.9001     4.6303    -4.4585 C.3     
  22 O22          -11.5616     5.8390    -4.0625 O.3     
  23 C23          -11.0040     6.2367    -2.7936 C.3     
  24 C24          -10.1717     4.8540    -5.7853 C.3     
  25 C25          -11.9300     3.5110    -4.6235 C.3     
  26 O26           -8.9090     6.5006    -0.6876 O.3     
  27 C27           -9.6430     8.3719     0.6194 C.ar    
  28 C28           -9.7616     9.5529    -0.0893 C.ar    
  29 C29           -9.4036    10.7512     0.4996 C.ar    
  30 C30           -8.9275    10.7686     1.7972 C.ar    
  31 C31           -8.8098     9.5878     2.5062 C.ar    
  32 C32           -9.1664     8.3893     1.9168 C.ar    
  33 C33          -10.0391     7.0662    -0.0205 C.3     
  34 H34            0.9456    -0.5295    -0.0098 H       
  35 H35           -3.3190    -0.6065     0.0293 H       
  36 H36           -1.2346     3.1364     0.0372 H       
  37 H37           -2.8137     4.0160     0.0519 H       
  38 H38           -4.9675     5.2048     0.0771 H       
  39 H39           -7.0430     1.4778     0.0744 H       
  40 H40           -4.8983     0.2729     0.0430 H       
  41 H41           -8.1955     3.5418     0.6087 H       
  42 H42           -7.3295     5.0969     0.6102 H       
  43 H43           -7.1227     4.9290    -1.8880 H       
  44 H44           -8.8664     2.6311    -1.5590 H       
  45 H45           -9.9629     4.7265    -0.7886 H       
  46 H46           -8.8841     6.0733    -3.3209 H       
  47 H47          -11.6354     5.8978    -1.9722 H       
  48 H48          -10.8668     7.3173    -2.7548 H       
  49 H49           -9.6605     3.9369    -6.0782 H       
  50 H50          -10.8936     5.1290    -6.5543 H       
  51 H51           -9.4421     5.6553    -5.6687 H       
  52 H52          -12.4525     3.3560    -3.6795 H       
  53 H53          -12.6482     3.7889    -5.3949 H       
  54 H54          -11.4231     2.5907    -4.9136 H       
  55 H55          -10.1335     9.5393    -1.1031 H       
  56 H56           -9.4956    11.6738    -0.0543 H       
  57 H57           -8.6472    11.7048     2.2571 H       
  58 H58           -8.4372     9.6013     3.5198 H       
  59 H59           -9.0737     7.4666     2.4705 H       
  60 H60          -10.8365     7.2425    -0.7424 H       
  61 H61          -10.3901     6.3770     0.7476 H       
@<TRIPOS>BOND
   1    1    2 ar
   2    1    7 1
   3    1    6 ar
   4    2    3 ar
   5    2   34 1
   6    3    4 ar
   7    3    8 1
   8    4    5 ar
   9    4   35 1
  10    5    6 ar
  11    5    9 1
  12    6   36 1
  13    9   10 ar
  14    9   14 ar
  15   10   11 ar
  16   10   37 1
  17   11   12 ar
  18   11   38 1
  19   12   13 ar
  20   12   15 1
  21   13   14 ar
  22   13   39 1
  23   14   40 1
  24   15   16 1
  25   15   41 1
  26   15   42 1
  27   16   17 1
  28   16   18 1
  29   16   43 1
  30   17   44 1
  31   18   26 1
  32   18   19 1
  33   18   45 1
  34   19   20 1
  35   19   23 1
  36   19   46 1
  37   20   21 1
  38   21   22 1
  39   21   24 1
  40   21   25 1
  41   22   23 1
  42   23   47 1
  43   23   48 1
  44   24   49 1
  45   24   50 1
  46   24   51 1
  47   25   52 1
  48   25   53 1
  49   25   54 1
  50   26   33 1
  51   27   28 ar
  52   27   32 ar
  53   27   33 1
  54   28   29 ar
  55   28   55 1
  56   29   30 ar
  57   29   56 1
  58   30   31 ar
  59   30   57 1
  60   31   32 ar
  61   31   58 1
  62   32   59 1
  63   33   60 1
  64   33   61 1

#	End of record

