#	Name: ASD00840172
#	Creating user name:	WinNT
#	Creation time:	15. 06. 2019 18:37

#	Modifying user name:	WinNT
#	Modification time:	15. 06. 2019 18:37

#	Program:	/corina/corina34_cracker 3.40 0067  02.08.2006

@<TRIPOS>MOLECULE
ASD00840172
  97  102    0    0    0
SMALL
NO_CHARGES


@<TRIPOS>ATOM
   1 N1            -0.0150     1.3150     0.0238 N.ar    
   2 C2             0.0022    -0.0073     0.0101 C.ar    
   3 C3             1.2067    -0.6992    -0.0073 C.ar    
   4 C4             2.3927     0.0137    -0.0102 C.ar    
   5 C5             2.3316     1.4006     0.0046 C.ar    
   6 C6             1.0992     2.0221     0.0215 C.ar    
   7 C7             1.2215    -2.2061    -0.0224 C.3     
   8 C8             0.4764    -2.7320    -1.2307 C.2     
   9 N9             2.5989    -2.7049    -0.0113 N.am    
  10 C10            3.4472    -2.3639    -1.0016 C.2     
  11 N11            4.7405    -2.7378    -0.9396 N.am    
  12 O12            3.0455    -1.7191    -1.9509 O.2     
  13 C13            5.6563    -2.4767    -2.0605 C.3     
  14 C14            6.9068    -1.7789    -1.5150 C.3     
  15 N15            7.4744    -2.5812    -0.4231 N.3     
  16 C16            6.5392    -2.6829     0.7052 C.3     
  17 C17            5.2751    -3.4123     0.2531 C.3     
  18 C18            8.7676    -2.0374     0.0125 C.3     
  19 C19            9.2683    -2.8206     1.2292 C.3     
  20 C20           10.6434    -2.2898     1.6409 C.3     
  21 N21           11.5819    -2.4376     0.5211 N.3     
  22 C22           11.1464    -1.6561    -0.6434 C.3     
  23 C23            9.7863    -2.1680    -1.1232 C.3     
  24 C24           12.9449    -2.0667     0.9241 C.3     
  25 O25            0.7580    -2.5325    -2.3933 O.2     
  26 N26           -0.5547    -3.4618    -0.7737 N.am    
  27 C27            0.4463    -2.7555     1.1536 C.ar    
  28 C28           -0.6033    -3.4974     0.6170 C.ar    
  29 C29            0.6096    -2.6407     2.5109 C.ar    
  30 C30           -0.2883    -3.2761     3.3761 C.ar    
  31 C31           -1.3458    -4.0236     2.8439 C.ar    
  32 C32           -1.4983    -4.1323     1.4782 C.ar    
  33 F33           -2.2180    -4.6408     3.6706 F       
  34 C34           -1.0171    -5.8484    -2.0640 C.ar    
  35 C35            0.1624    -6.0090    -2.7768 C.ar    
  36 C36           -1.6968    -6.9552    -1.5921 C.ar    
  37 C37           -1.2038    -8.2240    -1.8282 C.ar    
  38 C38           -0.0243    -8.3899    -2.5407 C.ar    
  39 C39            0.6591    -7.2814    -3.0155 C.ar    
  40 O40            0.4600    -9.6383    -2.7731 O.3     
  41 O41            0.8301    -4.9202    -3.2410 O.3     
  42 C42           -0.2964   -10.7344    -2.2548 C.3     
  43 C43            2.0375    -5.1603    -3.9668 C.3     
  44 C44            2.6428    -3.8254    -4.4055 C.3     
  45 C45           13.9288    -2.4657    -0.1775 C.3     
  46 C46           -0.1265    -3.1630     4.7944 C.1     
  47 N47            0.0018    -3.0733     5.9196 N.1     
  48 S48           -1.6451    -4.2315    -1.7540 S.o2    
  49 O49           -2.8272    -4.4010    -0.9839 O.2     
  50 O50           -1.6198    -3.5458    -2.9984 O.2     
  51 O51           -1.1675    -0.6946     0.0135 O.3     
  52 C52           -3.5780    -0.8668     0.0333 C.3     
  53 C53           -2.3718     0.0745     0.0321 C.3     
  54 H54            3.3442    -0.4972    -0.0232 H       
  55 H55            3.2386     1.9869     0.0032 H       
  56 H56            1.0461     3.1008     0.0326 H       
  57 H57            2.9005    -3.2806     0.7089 H       
  58 H58            5.9384    -3.4191    -2.5301 H       
  59 H59            5.1668    -1.8325    -2.7909 H       
  60 H60            7.6433    -1.6767    -2.3120 H       
  61 H61            6.6377    -0.7917    -1.1391 H       
  62 H62            7.0089    -3.2364     1.5182 H       
  63 H63            6.2752    -1.6832     1.0501 H       
  64 H64            4.5337    -3.3894     1.0518 H       
  65 H65            5.5176    -4.4454     0.0043 H       
  66 H66            8.6501    -0.9869     0.2786 H       
  67 H67            8.5681    -2.6964     2.0553 H       
  68 H68            9.3476    -3.8774     0.9744 H       
  69 H69           10.5608    -1.2365     1.9088 H       
  70 H70           11.0091    -2.8549     2.4982 H       
  71 H71           11.0614    -0.6058    -0.3647 H       
  72 H72           11.8773    -1.7610    -1.4451 H       
  73 H73            9.8737    -3.2146    -1.4151 H       
  74 H74            9.4561    -1.5776    -1.9779 H       
  75 H75           12.9961    -0.9898     1.0844 H       
  76 H76           13.2042    -2.5842     1.8477 H       
  77 H77            1.4290    -2.0619     2.9106 H       
  78 H78           -2.3157    -4.7103     1.0730 H       
  79 H79           -2.6148    -6.8281    -1.0374 H       
  80 H80           -1.7364    -9.0874    -1.4578 H       
  81 H81            1.5768    -7.4085    -3.5705 H       
  82 H82           -0.3690   -10.6454    -1.1709 H       
  83 H83           -1.2965   -10.7228    -2.6882 H       
  84 H84            0.1995   -11.6709    -2.5102 H       
  85 H85            2.7461    -5.6883    -3.3287 H       
  86 H86            1.8186    -5.7664    -4.8459 H       
  87 H87            3.5638    -4.0085    -4.9591 H       
  88 H88            1.9343    -3.2974    -5.0436 H       
  89 H89            2.8618    -3.2193    -3.5264 H       
  90 H90           14.9402    -2.1905     0.1215 H       
  91 H91           13.8777    -3.5427    -0.3378 H       
  92 H92           13.6695    -1.9482    -1.1012 H       
  93 H93           -3.5404    -1.5045     0.9165 H       
  94 H94           -4.4966    -0.2802     0.0475 H       
  95 H95           -3.5563    -1.4863    -0.8633 H       
  96 H96           -2.3935     0.6939     0.9287 H       
  97 H97           -2.4094     0.7121    -0.8511 H       
@<TRIPOS>BOND
   1    1    2 ar
   2    1    6 ar
   3    2    3 ar
   4    2   51 1
   5    3    4 ar
   6    3    7 1
   7    4    5 ar
   8    4   54 1
   9    5    6 ar
  10    5   55 1
  11    6   56 1
  12    7    8 1
  13    7    9 1
  14    7   27 1
  15    8   25 2
  16    8   26 am
  17    9   10 am
  18    9   57 1
  19   10   11 am
  20   10   12 2
  21   11   13 1
  22   11   17 1
  23   13   14 1
  24   13   58 1
  25   13   59 1
  26   14   15 1
  27   14   60 1
  28   14   61 1
  29   15   16 1
  30   15   18 1
  31   16   17 1
  32   16   62 1
  33   16   63 1
  34   17   64 1
  35   17   65 1
  36   18   19 1
  37   18   23 1
  38   18   66 1
  39   19   20 1
  40   19   67 1
  41   19   68 1
  42   20   21 1
  43   20   69 1
  44   20   70 1
  45   21   22 1
  46   21   24 1
  47   22   23 1
  48   22   71 1
  49   22   72 1
  50   23   73 1
  51   23   74 1
  52   24   45 1
  53   24   75 1
  54   24   76 1
  55   26   48 am
  56   26   28 1
  57   27   28 ar
  58   27   29 ar
  59   28   32 ar
  60   29   30 ar
  61   29   77 1
  62   30   31 ar
  63   30   46 1
  64   31   32 ar
  65   31   33 1
  66   32   78 1
  67   34   35 ar
  68   34   36 ar
  69   34   48 1
  70   35   41 1
  71   35   39 ar
  72   36   37 ar
  73   36   79 1
  74   37   38 ar
  75   37   80 1
  76   38   39 ar
  77   38   40 1
  78   39   81 1
  79   40   42 1
  80   41   43 1
  81   42   82 1
  82   42   83 1
  83   42   84 1
  84   43   44 1
  85   43   85 1
  86   43   86 1
  87   44   87 1
  88   44   88 1
  89   44   89 1
  90   45   90 1
  91   45   91 1
  92   45   92 1
  93   46   47 3
  94   48   49 2
  95   48   50 2
  96   51   53 1
  97   52   53 1
  98   52   93 1
  99   52   94 1
 100   52   95 1
 101   53   96 1
 102   53   97 1

#	End of record

