#	Name: ASD01917131
#	Creating user name:	WinNT
#	Creation time:	15. 06. 2019 20:08

#	Modifying user name:	WinNT
#	Modification time:	15. 06. 2019 20:08

#	Program:	/corina/corina34_cracker 3.40 0067  02.08.2006

@<TRIPOS>MOLECULE
ASD01917131
  44   47    0    0    0
SMALL
NO_CHARGES


@<TRIPOS>ATOM
   1 C1            -0.0567     1.6450     0.8102 C.ar    
   2 C2             0.0963     0.2521     0.6172 C.ar    
   3 C3            -1.0024    -0.5330     0.2682 C.ar    
   4 C4            -2.2252     0.0503     0.1003 C.ar    
   5 C5            -2.3867     1.4264     0.2753 C.ar    
   6 C6            -1.3110     2.2245     0.6287 C.ar    
   7 N7             1.0224     2.3719     1.1768 N.2     
   8 C8             2.2121     1.8467     1.3357 C.2     
   9 N9             2.4618     0.5405     1.0662 N.am    
  10 C10            1.4379    -0.3109     0.7839 C.2     
  11 N11           -3.6418     2.0021     0.0926 N.pl3   
  12 O12            1.6321    -1.5078     0.6732 O.2     
  13 N13           -2.6618     3.9219    -0.8395 N.ar    
  14 C14           -3.7479     3.2912    -0.4196 C.ar    
  15 C15           -2.7188     5.1444    -1.3322 C.ar    
  16 C16           -3.9226     5.8141    -1.4278 C.ar    
  17 C17           -5.0849     5.1879    -0.9984 C.ar    
  18 C18           -4.9938     3.9059    -0.4864 C.ar    
  19 C19            3.2755     2.7620     1.8834 C.3     
  20 C20            4.6760     2.2726     1.5877 C.3     
  21 C21            4.8194     0.7804     1.8061 C.3     
  22 C22            3.8095    -0.0159     1.0113 C.3     
  23 C23            6.2278     0.3513     1.3897 C.3     
  24 C24            4.6307     0.4765     3.2937 C.3     
  25 H25           -0.8861    -1.5979     0.1311 H       
  26 H26           -3.0755    -0.5580    -0.1706 H       
  27 H27           -1.4434     3.2880     0.7623 H       
  28 H28           -4.4419     1.5041     0.3224 H       
  29 H29           -1.8120     5.6278    -1.6647 H       
  30 H30           -3.9595     6.8148    -1.8321 H       
  31 H31           -6.0388     5.6905    -1.0622 H       
  32 H32           -5.8781     3.3892    -0.1436 H       
  33 H33            3.1484     3.7515     1.4443 H       
  34 H34            3.1506     2.8398     2.9634 H       
  35 H35            4.9197     2.5033     0.5507 H       
  36 H36            5.3777     2.7944     2.2386 H       
  37 H37            3.7834    -1.0341     1.3995 H       
  38 H38            4.1318    -0.0495    -0.0294 H       
  39 H39            6.9631     0.8841     1.9927 H       
  40 H40            6.3409    -0.7219     1.5433 H       
  41 H41            6.3826     0.5860     0.3366 H       
  42 H42            3.6387     0.8011     3.6078 H       
  43 H43            4.7321    -0.5958     3.4613 H       
  44 H44            5.3868     1.0077     3.8719 H       
@<TRIPOS>BOND
   1    1    2 ar
   2    1    7 1
   3    1    6 ar
   4    2    3 ar
   5    2   10 1
   6    3    4 ar
   7    3   25 1
   8    4    5 ar
   9    4   26 1
  10    5    6 ar
  11    5   11 1
  12    6   27 1
  13    7    8 2
  14    8    9 1
  15    8   19 1
  16    9   10 am
  17    9   22 1
  18   10   12 2
  19   11   14 1
  20   11   28 1
  21   13   15 ar
  22   13   14 ar
  23   14   18 ar
  24   15   16 ar
  25   15   29 1
  26   16   17 ar
  27   16   30 1
  28   17   18 ar
  29   17   31 1
  30   18   32 1
  31   19   20 1
  32   19   33 1
  33   19   34 1
  34   20   21 1
  35   20   35 1
  36   20   36 1
  37   21   22 1
  38   21   23 1
  39   21   24 1
  40   22   37 1
  41   22   38 1
  42   23   39 1
  43   23   40 1
  44   23   41 1
  45   24   42 1
  46   24   43 1
  47   24   44 1

#	End of record

