#	Name: ASD03740010
#	Creating user name:	WinNT
#	Creation time:	15. 06. 2019 20:46

#	Modifying user name:	WinNT
#	Modification time:	15. 06. 2019 20:46

#	Program:	/corina/corina34_cracker 3.40 0067  02.08.2006

@<TRIPOS>MOLECULE
ASD03740010
  34   36    0    0    0
SMALL
NO_CHARGES


@<TRIPOS>ATOM
   1 C1            -0.0167     1.3782     0.0096 C.ar    
   2 C2             0.0021    -0.0041     0.0020 C.ar    
   3 C3            -1.1849    -0.7118     0.0100 C.ar    
   4 C4            -2.3932    -0.0359     0.0256 C.ar    
   5 C5            -2.4107     1.3486     0.0332 C.ar    
   6 C6            -1.2224     2.0541     0.0305 C.ar    
   7 S7             1.4975     2.2792     0.0000 S.o2    
   8 N8             1.9037     2.5384    -1.5844 N.am    
   9 O9             1.2086     3.5555     0.5541 O.2     
  10 O10            2.4865     1.4075     0.5303 O.2     
  11 C11            1.5382     3.6072    -2.3385 C.2     
  12 C12            2.0761     3.4388    -3.5775 C.2     
  13 C13            2.7891     2.2319    -3.5749 C.2     
  14 N14            2.6899     1.6971    -2.3818 N.2     
  15 N15            0.7552     4.6794    -1.9206 N.pl3   
  16 O16            3.4715     1.7081    -4.6279 O.3     
  17 C17            4.0974     0.5301    -4.4272 C.2     
  18 C18            4.8513    -0.0930    -5.5163 C.2     
  19 O19            4.0353    -0.0143    -3.3412 O.2     
  20 S20            5.0359     0.5651    -7.1363 S.3     
  21 C21            5.9917    -0.7636    -7.6178 C.2     
  22 C22            6.1479    -1.6312    -6.6105 C.2     
  23 C23            5.5300    -1.2776    -5.4351 C.2     
  24 F24           -3.5542    -0.7267     0.0330 F       
  25 H25            0.9447    -0.5311    -0.0105 H       
  26 H26           -1.1700    -1.7917     0.0037 H       
  27 H27           -3.3526     1.8768     0.0454 H       
  28 H28           -1.2359     3.1340     0.0365 H       
  29 H29            1.9718     4.1144    -4.4136 H       
  30 H30            0.4165     4.7075    -1.0121 H       
  31 H31            0.5482     5.3984    -2.5378 H       
  32 H32            6.4144    -0.8881    -8.6038 H       
  33 H33            6.7216    -2.5405    -6.7127 H       
  34 H34            5.5696    -1.8791    -4.5390 H       
@<TRIPOS>BOND
   1    1    2 ar
   2    1    7 1
   3    1    6 ar
   4    2    3 ar
   5    2   25 1
   6    3    4 ar
   7    3   26 1
   8    4    5 ar
   9    4   24 1
  10    5    6 ar
  11    5   27 1
  12    6   28 1
  13    7    8 am
  14    7    9 2
  15    7   10 2
  16    8   11 1
  17    8   14 1
  18   11   12 2
  19   11   15 1
  20   12   13 1
  21   12   29 1
  22   13   14 2
  23   13   16 1
  24   15   30 1
  25   15   31 1
  26   16   17 1
  27   17   18 1
  28   17   19 2
  29   18   20 1
  30   18   23 2
  31   20   21 1
  32   21   22 2
  33   21   32 1
  34   22   23 1
  35   22   33 1
  36   23   34 1

#	End of record

