#	Name: ASD02030326
#	Creating user name:	WinNT
#	Creation time:	15. 06. 2019 20:15

#	Modifying user name:	WinNT
#	Modification time:	15. 06. 2019 20:15

#	Program:	/corina/corina34_cracker 3.40 0067  02.08.2006

@<TRIPOS>MOLECULE
ASD02030326
  57   60    0    0    0
SMALL
NO_CHARGES


@<TRIPOS>ATOM
   1 N1            -0.2098     1.1000    -0.1045 N.am    
   2 C2            -0.7003    -0.2852    -0.1230 C.3     
   3 C3            -1.6842    -0.4723     1.0386 C.3     
   4 N4            -2.6609     0.6254     1.0082 N.am    
   5 C5            -2.1703     2.0106     1.0267 C.3     
   6 C6            -1.1867     2.1977    -0.1292 C.3     
   7 C7             1.1121     1.3590    -0.0599 C.2     
   8 C8             2.0773     0.2513     0.1034 C.2     
   9 N9             3.3730     0.3758     0.2944 N.2     
  10 N10            1.7845    -1.0621     0.0889 N.2     
  11 C11            2.9063    -1.7126     0.2657 C.2     
  12 N12            3.8912    -0.7998     0.3928 N.pl3   
  13 C13            5.2485    -1.0823     0.5973 C.ar    
  14 O14            1.5107     2.5036    -0.1540 O.2     
  15 C15           -0.4614     3.5361     0.0252 C.3     
  16 C16           -1.4898     4.6595     0.1710 C.3     
  17 C17           -0.9718     2.4481    -2.6058 C.3     
  18 C18           -1.9447     2.1708    -1.4580 C.3     
  19 C19           -3.9828     0.3664     0.9636 C.2     
  20 C20           -4.4655    -1.0335     1.0139 C.ar    
  21 O21           -4.7787     1.2810     0.8822 O.2     
  22 N22           -3.6257    -2.0077     1.3422 N.ar    
  23 C23           -4.0143    -3.2640     1.3989 C.ar    
  24 C24           -5.3256    -3.6169     1.1152 C.ar    
  25 C25           -6.2344    -2.6302     0.7682 C.ar    
  26 C26           -5.7978    -1.3153     0.7219 C.ar    
  27 Cl27          -2.8707    -4.4955     1.8337 Cl      
  28 C28            6.1648    -0.0460     0.7120 C.ar    
  29 C29            7.5032    -0.3281     0.9136 C.ar    
  30 C30            7.9288    -1.6419     1.0005 C.ar    
  31 C31            7.0175    -2.6756     0.8861 C.ar    
  32 C32            5.6785    -2.3995     0.6912 C.ar    
  33 Cl33           8.6505     0.9668     1.0572 Cl      
  34 H34           -1.2080    -0.4809    -1.0675 H       
  35 H35            0.1382    -0.9718    -0.0065 H       
  36 H36           -2.2016    -1.4255     0.9298 H       
  37 H37           -1.1419    -0.4534     1.9839 H       
  38 H38           -3.0088     2.6973     0.9101 H       
  39 H39           -1.6627     2.2063     1.9712 H       
  40 H40            3.0219    -2.7857     0.3059 H       
  41 H41            0.1720     3.5059     0.9117 H       
  42 H42            0.1544     3.7193    -0.8553 H       
  43 H43           -0.9753     5.5992     0.3719 H       
  44 H44           -2.0632     4.7492    -0.7516 H       
  45 H45           -2.1635     4.4304     0.9967 H       
  46 H46           -0.4619     3.3951    -2.4291 H       
  47 H47           -0.2373     1.6448    -2.6617 H       
  48 H48           -1.5233     2.5021    -3.5445 H       
  49 H49           -2.4001     1.1902    -1.5966 H       
  50 H50           -2.7223     2.9345    -1.4482 H       
  51 H51           -5.6349    -4.6505     1.1641 H       
  52 H52           -7.2608    -2.8794     0.5429 H       
  53 H53           -6.4795    -0.5212     0.4552 H       
  54 H54            5.8328     0.9794     0.6434 H       
  55 H55            8.9748    -1.8604     1.1577 H       
  56 H56            7.3527    -3.7001     0.9536 H       
  57 H57            4.9675    -3.2076     0.6023 H       
@<TRIPOS>BOND
   1    1    2 1
   2    1    7 am
   3    1    6 1
   4    2    3 1
   5    2   34 1
   6    2   35 1
   7    3    4 1
   8    3   36 1
   9    3   37 1
  10    4    5 1
  11    4   19 am
  12    5    6 1
  13    5   38 1
  14    5   39 1
  15    6   15 1
  16    6   18 1
  17    7    8 1
  18    7   14 2
  19    8    9 2
  20    8   10 1
  21    9   12 1
  22   10   11 2
  23   11   12 1
  24   11   40 1
  25   12   13 1
  26   13   28 ar
  27   13   32 ar
  28   15   16 1
  29   15   41 1
  30   15   42 1
  31   16   43 1
  32   16   44 1
  33   16   45 1
  34   17   18 1
  35   17   46 1
  36   17   47 1
  37   17   48 1
  38   18   49 1
  39   18   50 1
  40   19   20 1
  41   19   21 2
  42   20   22 ar
  43   20   26 ar
  44   22   23 ar
  45   23   24 ar
  46   23   27 1
  47   24   25 ar
  48   24   51 1
  49   25   26 ar
  50   25   52 1
  51   26   53 1
  52   28   29 ar
  53   28   54 1
  54   29   30 ar
  55   29   33 1
  56   30   31 ar
  57   30   55 1
  58   31   32 ar
  59   31   56 1
  60   32   57 1

#	End of record

