#	Name: ASD02030186
#	Creating user name:	WinNT
#	Creation time:	15. 06. 2019 20:14

#	Modifying user name:	WinNT
#	Modification time:	15. 06. 2019 20:14

#	Program:	/corina/corina34_cracker 3.40 0067  02.08.2006

@<TRIPOS>MOLECULE
ASD02030186
  52   55    0    0    0
SMALL
NO_CHARGES


@<TRIPOS>ATOM
   1 N1            -0.2121     1.4224    -0.1395 N.am    
   2 C2            -0.0217    -0.0111     0.1222 C.3     
   3 C3            -0.9186    -0.4180     1.2979 C.3     
   4 N4            -2.2777     0.0817     1.0466 N.am    
   5 C5            -2.4681     1.5153     0.7848 C.3     
   6 C6            -1.5718     1.9231    -0.3853 C.3     
   7 C7             0.8407     2.2638    -0.1485 C.2     
   8 C8             2.1832     1.7721     0.2276 C.2     
   9 N9             3.2618     2.5093     0.3829 N.2     
  10 N10            2.5160     0.4923     0.4772 N.2     
  11 C11            3.7904     0.4727     0.7744 C.2     
  12 N12            4.2432     1.7417     0.7113 N.pl3   
  13 O13            0.6865     3.4271    -0.4659 O.2     
  14 C14           -3.3305    -0.7597     1.0556 C.2     
  15 C15           -4.7027    -0.2284     0.9115 C.ar    
  16 O16           -3.1519    -1.9553     1.1822 O.2     
  17 C17           -1.5453     3.4482    -0.5046 C.3     
  18 C18           -2.1094     1.3124    -1.6810 C.3     
  19 C19           -5.6737    -0.9696     0.2371 C.ar    
  20 C20           -6.9536    -0.4676     0.1065 C.ar    
  21 C21           -7.2733     0.7680     0.6432 C.ar    
  22 C22           -6.3143     1.5070     1.3129 C.ar    
  23 C23           -5.0337     1.0142     1.4547 C.ar    
  24 Cl24          -8.1636    -1.3871    -0.7325 Cl      
  25 C25            5.5589     2.1553     0.9604 C.ar    
  26 C26            5.8965     3.4984     0.8610 C.ar    
  27 C27            7.1939     3.9030     1.1070 C.ar    
  28 C28            8.1564     2.9718     1.4517 C.ar    
  29 C29            7.8233     1.6334     1.5516 C.ar    
  30 C30            6.5261     1.2235     1.3128 C.ar    
  31 H31           -0.2966    -0.5844    -0.7631 H       
  32 H32            1.0214    -0.2015     0.3749 H       
  33 H33           -0.9384    -1.5044     1.3841 H       
  34 H34           -0.5333     0.0176     2.2198 H       
  35 H35           -3.5111     1.7056     0.5321 H       
  36 H36           -2.1931     2.0885     1.6702 H       
  37 H37            4.3730    -0.4008     1.0275 H       
  38 H38           -1.0494     3.8724     0.3684 H       
  39 H39           -1.0015     3.7327    -1.4054 H       
  40 H40           -2.5661     3.8259    -0.5619 H       
  41 H41           -3.1230     1.6718    -1.8589 H       
  42 H42           -1.4691     1.6044    -2.5134 H       
  43 H43           -2.1192     0.2259    -1.5939 H       
  44 H44           -5.4248    -1.9333    -0.1821 H       
  45 H45           -8.2755     1.1567     0.5384 H       
  46 H46           -6.5700     2.4703     1.7290 H       
  47 H47           -4.2865     1.5923     1.9780 H       
  48 H48            5.1454     4.2261     0.5911 H       
  49 H49            7.4571     4.9476     1.0298 H       
  50 H50            9.1704     3.2905     1.6429 H       
  51 H51            8.5772     0.9085     1.8210 H       
  52 H52            6.2665     0.1781     1.3912 H       
@<TRIPOS>BOND
   1    1    2 1
   2    1    7 am
   3    1    6 1
   4    2    3 1
   5    2   31 1
   6    2   32 1
   7    3    4 1
   8    3   33 1
   9    3   34 1
  10    4    5 1
  11    4   14 am
  12    5    6 1
  13    5   35 1
  14    5   36 1
  15    6   17 1
  16    6   18 1
  17    7    8 1
  18    7   13 2
  19    8    9 2
  20    8   10 1
  21    9   12 1
  22   10   11 2
  23   11   12 1
  24   11   37 1
  25   12   25 1
  26   14   15 1
  27   14   16 2
  28   15   19 ar
  29   15   23 ar
  30   17   38 1
  31   17   39 1
  32   17   40 1
  33   18   41 1
  34   18   42 1
  35   18   43 1
  36   19   20 ar
  37   19   44 1
  38   20   21 ar
  39   20   24 1
  40   21   22 ar
  41   21   45 1
  42   22   23 ar
  43   22   46 1
  44   23   47 1
  45   25   26 ar
  46   25   30 ar
  47   26   27 ar
  48   26   48 1
  49   27   28 ar
  50   27   49 1
  51   28   29 ar
  52   28   50 1
  53   29   30 ar
  54   29   51 1
  55   30   52 1

#	End of record

