#	Name: ASD02198780
#	Creating user name:	WinNT
#	Creation time:	15. 06. 2019 20:20

#	Modifying user name:	WinNT
#	Modification time:	15. 06. 2019 20:20

#	Program:	/corina/corina34_cracker 3.40 0067  02.08.2006

@<TRIPOS>MOLECULE
ASD02198780
  60   65    0    0    0
SMALL
NO_CHARGES


@<TRIPOS>ATOM
   1 C1             0.2040     1.5007     0.1035 C.2     
   2 C2             0.2455     0.2081     0.5140 C.2     
   3 N3             1.4269    -0.4159     0.7206 N.pl3   
   4 N4             2.5629     0.1525     0.5485 N.2     
   5 C5             2.6657     1.4031     0.1519 C.2     
   6 C6             1.4349     2.1692    -0.1002 C.2     
   7 C7             1.4088    -1.7491     1.1441 C.ar    
   8 C8             2.0853    -2.1219     2.3048 C.ar    
   9 C9             2.0649    -3.4424     2.7214 C.ar    
  10 C10            1.3715    -4.3914     1.9831 C.ar    
  11 C11            0.6980    -4.0177     0.8267 C.ar    
  12 C12            0.7121    -2.7016     0.4118 C.ar    
  13 C13            3.9916     2.0263    -0.0357 C.2     
  14 N14            4.4533     2.6258    -1.1737 N.pl3   
  15 N15            5.7530     3.0809    -0.9189 N.2     
  16 C16            6.0720     2.7756     0.3136 C.2     
  17 C17            4.9935     2.1181     0.9055 C.2     
  18 C18            3.7524     2.7609    -2.3788 C.ar    
  19 C19            3.7925     3.9609    -3.0764 C.ar    
  20 C20            3.1006     4.0908    -4.2646 C.ar    
  21 C21            2.3684     3.0273    -4.7599 C.ar    
  22 C22            2.3261     1.8311    -4.0674 C.ar    
  23 C23            3.0205     1.6931    -2.8815 C.ar    
  24 O24            1.4738     3.3333    -0.4702 O.2     
  25 N25            1.3511    -5.7281     2.4043 N.pl3   
  26 N26            1.2762    -6.1747     3.7298 N.2     
  27 C27            1.2801    -7.4833     3.7252 C.2     
  28 C28            1.3575    -7.9208     2.3993 C.2     
  29 C29            1.3944    -6.8226     1.5987 C.2     
  30 O30            1.4703    -6.8194     0.2433 O.3     
  31 C31            1.4022    -8.0868    -0.4133 C.3     
  32 C32            1.6203    -7.8953    -1.9155 C.3     
  33 C33            1.7010    -9.1526    -2.7836 C.3     
  34 C34            0.4631    -8.2559    -2.8491 C.3     
  35 O35            2.7640    -1.1911     3.0259 O.3     
  36 C36            3.4339    -1.6448     4.2038 C.3     
  37 H37           -0.7375     2.0017    -0.0666 H       
  38 H38           -0.6770    -0.3290     0.6781 H       
  39 H39            2.5885    -3.7338     3.6200 H       
  40 H40            0.1590    -4.7578     0.2538 H       
  41 H41            0.1878    -2.4136    -0.4874 H       
  42 H42            7.0131     2.9991     0.7939 H       
  43 H43            4.9536     1.7426     1.9173 H       
  44 H44            4.3639     4.7920    -2.6899 H       
  45 H45            3.1311     5.0240    -4.8074 H       
  46 H46            1.8282     3.1314    -5.6892 H       
  47 H47            1.7531     1.0025    -4.4565 H       
  48 H48            2.9873     0.7585    -2.3412 H       
  49 H49            1.2318    -8.1180     4.5977 H       
  50 H50            1.3798    -8.9490     2.0695 H       
  51 H51            2.1748    -8.7444    -0.0149 H       
  52 H52            0.4222    -8.5323    -0.2424 H       
  53 H53            2.2482    -7.0494    -2.1953 H       
  54 H54            2.3817    -9.1337    -3.6347 H       
  55 H55            1.5987   -10.1162    -2.2845 H       
  56 H56           -0.4537    -8.6296    -2.3931 H       
  57 H57            0.3293    -7.6471    -3.7433 H       
  58 H58            3.9347    -0.8039     4.6837 H       
  59 H59            2.7067    -2.0755     4.8922 H       
  60 H60            4.1711    -2.4010     3.9341 H       
@<TRIPOS>BOND
   1    1    2 2
   2    1    6 1
   3    1   37 1
   4    2    3 1
   5    2   38 1
   6    3    4 1
   7    3    7 1
   8    4    5 2
   9    5    6 1
  10    5   13 1
  11    6   24 2
  12    7    8 ar
  13    7   12 ar
  14    8    9 ar
  15    8   35 1
  16    9   10 ar
  17    9   39 1
  18   10   11 ar
  19   10   25 1
  20   11   12 ar
  21   11   40 1
  22   12   41 1
  23   13   14 1
  24   13   17 2
  25   14   15 1
  26   14   18 1
  27   15   16 2
  28   16   17 1
  29   16   42 1
  30   17   43 1
  31   18   19 ar
  32   18   23 ar
  33   19   20 ar
  34   19   44 1
  35   20   21 ar
  36   20   45 1
  37   21   22 ar
  38   21   46 1
  39   22   23 ar
  40   22   47 1
  41   23   48 1
  42   25   26 1
  43   25   29 1
  44   26   27 2
  45   27   28 1
  46   27   49 1
  47   28   29 2
  48   28   50 1
  49   29   30 1
  50   30   31 1
  51   31   32 1
  52   31   51 1
  53   31   52 1
  54   32   33 1
  55   32   34 1
  56   32   53 1
  57   33   34 1
  58   33   54 1
  59   33   55 1
  60   34   56 1
  61   34   57 1
  62   35   36 1
  63   36   58 1
  64   36   59 1
  65   36   60 1

#	End of record

