#	Name: ASD02038367
#	Creating user name:	WinNT
#	Creation time:	15. 06. 2019 20:16

#	Modifying user name:	WinNT
#	Modification time:	15. 06. 2019 20:16

#	Program:	/corina/corina34_cracker 3.40 0067  02.08.2006

@<TRIPOS>MOLECULE
ASD02038367
  50   52    0    0    0
SMALL
NO_CHARGES


@<TRIPOS>ATOM
   1 N1            -0.0201     1.3961     0.0101 N.am    
   2 N2             1.8638    -6.9190    -1.9960 N.am    
   3 C3             1.1167    -6.1771    -1.1547 C.2     
   4 C4             1.1620    -4.6729    -1.2338 C.3     
   5 O5             0.2905    -4.1175    -0.2469 O.3     
   6 C6             0.2139    -2.7611    -0.1838 C.ar    
   7 C7            -0.6129    -2.1563     0.7512 C.ar    
   8 C8            -0.6910    -0.7790     0.8162 C.ar    
   9 C9             0.0587     0.0004    -0.0548 C.ar    
  10 C10            0.8863    -0.6059    -0.9906 C.ar    
  11 C11            0.9671    -1.9833    -1.0508 C.ar    
  12 C12            1.8344    -8.3883    -1.9358 C.3     
  13 C13            1.5716    -8.9281    -3.3457 C.3     
  14 N14            2.5600    -8.3642    -4.2747 N.3     
  15 C15            2.4321    -6.9036    -4.3667 C.3     
  16 C16            2.7256    -6.2809    -3.0028 C.3     
  17 C17            2.4566    -8.9567    -5.5368 C.ar    
  18 C18            3.3058    -8.5614    -6.5621 C.ar    
  19 C19            3.2018    -9.1494    -7.8094 C.ar    
  20 C20            2.2498   -10.1325    -8.0356 C.ar    
  21 C21            1.4033   -10.5263    -7.0143 C.ar    
  22 C22            1.5085    -9.9453    -5.7650 C.ar    
  23 F23            4.0271    -8.7659    -8.8079 F       
  24 F24            2.1487   -10.7061    -9.2546 F       
  25 O25            0.4078    -6.7201    -0.3340 O.2     
  26 S26           -0.8669     2.2320    -1.1416 S.o2    
  27 O27           -0.7448     3.5920    -0.7482 O.2     
  28 O28           -0.3275     1.7746    -2.3741 O.2     
  29 C29           -2.5786     1.6641    -0.9461 C.3     
  30 H30            0.4180     1.8735     0.7319 H       
  31 H31            2.1808    -4.3301    -1.0532 H       
  32 H32            0.8408    -4.3513    -2.2245 H       
  33 H33           -1.1959    -2.7627     1.4286 H       
  34 H34           -1.3354    -0.3082     1.5439 H       
  35 H35            1.4697    -0.0005    -1.6685 H       
  36 H36            1.6110    -2.4551    -1.7783 H       
  37 H37            2.7937    -8.7592    -1.5747 H       
  38 H38            1.0379    -8.7114    -1.2656 H       
  39 H39            1.6558   -10.0148    -3.3407 H       
  40 H40            0.5690    -8.6421    -3.6636 H       
  41 H41            3.1404    -6.5221    -5.1022 H       
  42 H42            1.4175    -6.6458    -4.6705 H       
  43 H43            2.5208    -5.2109    -3.0371 H       
  44 H44            3.7703    -6.4484    -2.7409 H       
  45 H45            4.0463    -7.7953    -6.3857 H       
  46 H46            0.6626   -11.2917    -7.1925 H       
  47 H47            0.8473   -10.2535    -4.9686 H       
  48 H48           -2.8952     1.8132     0.0862 H       
  49 H49           -3.2284     2.2330    -1.6112 H       
  50 H50           -2.6408     0.6049    -1.1958 H       
@<TRIPOS>BOND
   1    1    9 1
   2    1   26 am
   3    1   30 1
   4    2    3 am
   5    2   12 1
   6    2   16 1
   7    3   25 2
   8    3    4 1
   9    4    5 1
  10    4   31 1
  11    4   32 1
  12    5    6 1
  13    6    7 ar
  14    6   11 ar
  15    7    8 ar
  16    7   33 1
  17    8    9 ar
  18    8   34 1
  19    9   10 ar
  20   10   11 ar
  21   10   35 1
  22   11   36 1
  23   12   13 1
  24   12   37 1
  25   12   38 1
  26   13   14 1
  27   13   39 1
  28   13   40 1
  29   14   15 1
  30   14   17 1
  31   15   16 1
  32   15   41 1
  33   15   42 1
  34   16   43 1
  35   16   44 1
  36   17   18 ar
  37   17   22 ar
  38   18   19 ar
  39   18   45 1
  40   19   20 ar
  41   19   23 1
  42   20   21 ar
  43   20   24 1
  44   21   22 ar
  45   21   46 1
  46   22   47 1
  47   26   27 2
  48   26   28 2
  49   26   29 1
  50   29   48 1
  51   29   49 1
  52   29   50 1

#	End of record

