#	Name: ASD04590926
#	Creating user name:	WinNT
#	Creation time:	15. 06. 2019 20:51

#	Modifying user name:	WinNT
#	Modification time:	15. 06. 2019 20:51

#	Program:	/corina/corina34_cracker 3.40 0067  02.08.2006

@<TRIPOS>MOLECULE
ASD04590926
  60   65    0    0    0
SMALL
NO_CHARGES


@<TRIPOS>ATOM
   1 N1            -0.0222     1.2510     0.6640 N.ar    
   2 C2             0.0008    -0.0393     0.3548 C.ar    
   3 N3             1.1213    -0.7433     0.3404 N.ar    
   4 C4             2.2838    -0.1716     0.6402 C.ar    
   5 C5             2.2928     1.1981     0.9727 C.ar    
   6 C6             1.0897     1.8968     0.9748 C.ar    
   7 N7             3.5718    -0.6422     0.7051 N.pl3   
   8 C8             4.4396     0.3724     1.0707 C.ar    
   9 C9             3.6912     1.5492     1.2515 C.ar    
  10 C10            5.8126     0.4232     1.2735 C.ar    
  11 N11            6.3966     1.5499     1.6273 N.ar    
  12 C12            5.7225     2.6724     1.8053 C.ar    
  13 C13            4.3562     2.7162     1.6259 C.ar    
  14 C14            3.9716    -2.0239     0.4269 C.3     
  15 C15            3.2592    -2.9839     1.3957 C.3     
  16 C16            2.4098    -3.9355     0.5280 C.3     
  17 C17            3.1034    -3.9079    -0.8566 C.3     
  18 C18            3.5302    -2.4255    -0.9957 C.3     
  19 N19           -1.1890    -0.6712     0.0365 N.pl3   
  20 C20           -2.4017     0.0223     0.1459 C.ar    
  21 C21           -3.4517    -0.2603    -0.7141 C.ar    
  22 N22           -4.5967     0.3887    -0.6172 N.ar    
  23 C23           -4.7890     1.3272     0.2957 C.ar    
  24 C24           -3.7804     1.6642     1.1925 C.ar    
  25 C25           -2.5690     1.0011     1.1246 C.ar    
  26 N26           -6.0147     1.9853     0.3590 N.3     
  27 C27           -7.1230     1.0627     0.0763 C.3     
  28 C28           -8.4529     1.8037     0.2335 C.3     
  29 N29           -8.4816     2.9529    -0.6819 N.3     
  30 C30           -7.3733     3.8756    -0.3992 C.3     
  31 C31           -6.0434     3.1345    -0.5565 C.3     
  32 C32           -4.0074     2.7342     2.2291 C.3     
  33 H33            1.0639     2.9470     1.2255 H       
  34 H34            6.4068    -0.4687     1.1402 H       
  35 H35            6.2498     3.5690     2.0959 H       
  36 H36            3.8112     3.6369     1.7733 H       
  37 H37            5.0522    -2.1269     0.5264 H       
  38 H38            3.9940    -3.5535     1.9647 H       
  39 H39            2.6160    -2.4219     2.0728 H       
  40 H40            2.4238    -4.9438     0.9417 H       
  41 H41            1.3864    -3.5686     0.4493 H       
  42 H42            3.9744    -4.5632    -0.8654 H       
  43 H43            2.4031    -4.1839    -1.6450 H       
  44 H44            2.6878    -1.8148    -1.3204 H       
  45 H45            4.3620    -2.3319    -1.6939 H       
  46 H46           -1.1833    -1.5940    -0.2621 H       
  47 H47           -3.3311    -1.0200    -1.4722 H       
  48 H48           -1.7683     1.2417     1.8082 H       
  49 H49           -7.0336     0.6885    -0.9436 H       
  50 H50           -7.0877     0.2268     0.7750 H       
  51 H51           -9.2755     1.1290    -0.0039 H       
  52 H52           -8.5546     2.1543     1.2606 H       
  53 H53           -8.4629     2.6494    -1.6440 H       
  54 H54           -7.4086     4.7114    -1.0979 H       
  55 H55           -7.4627     4.2497     0.6207 H       
  56 H56           -5.2208     3.8092    -0.3190 H       
  57 H57           -5.9417     2.7840    -1.5835 H       
  58 H58           -4.3147     2.2719     3.1672 H       
  59 H59           -3.0837     3.2917     2.3842 H       
  60 H60           -4.7881     3.4130     1.8857 H       
@<TRIPOS>BOND
   1    1    2 ar
   2    1    6 ar
   3    2    3 ar
   4    2   19 1
   5    3    4 ar
   6    4    5 ar
   7    4    7 1
   8    5    6 ar
   9    5    9 1
  10    6   33 1
  11    7    8 1
  12    7   14 1
  13    8    9 ar
  14    8   10 ar
  15    9   13 ar
  16   10   11 ar
  17   10   34 1
  18   11   12 ar
  19   12   13 ar
  20   12   35 1
  21   13   36 1
  22   14   15 1
  23   14   18 1
  24   14   37 1
  25   15   16 1
  26   15   38 1
  27   15   39 1
  28   16   17 1
  29   16   40 1
  30   16   41 1
  31   17   18 1
  32   17   42 1
  33   17   43 1
  34   18   44 1
  35   18   45 1
  36   19   20 1
  37   19   46 1
  38   20   21 ar
  39   20   25 ar
  40   21   22 ar
  41   21   47 1
  42   22   23 ar
  43   23   24 ar
  44   23   26 1
  45   24   25 ar
  46   24   32 1
  47   25   48 1
  48   26   27 1
  49   26   31 1
  50   27   28 1
  51   27   49 1
  52   27   50 1
  53   28   29 1
  54   28   51 1
  55   28   52 1
  56   29   30 1
  57   29   53 1
  58   30   31 1
  59   30   54 1
  60   30   55 1
  61   31   56 1
  62   31   57 1
  63   32   58 1
  64   32   59 1
  65   32   60 1

#	End of record

