#	Name: ASD01120221
#	Creating user name:	WinNT
#	Creation time:	15. 06. 2019 18:59

#	Modifying user name:	WinNT
#	Modification time:	15. 06. 2019 18:59

#	Program:	/corina/corina34_cracker 3.40 0067  02.08.2006

@<TRIPOS>MOLECULE
ASD01120221
  45   48    0    0    0
SMALL
NO_CHARGES


@<TRIPOS>ATOM
   1 C1            -0.1512     0.6865     0.7998 C.ar    
   2 C2            -0.2731    -0.6949     0.7412 C.ar    
   3 C3            -1.5239    -1.2823     0.5749 C.ar    
   4 C4            -2.6581    -0.4761     0.4675 C.ar    
   5 C5            -2.5307     0.9182     0.5277 C.ar    
   6 C6            -1.2706     1.4932     0.6999 C.ar    
   7 O7            -3.9763    -0.7336     0.3044 O.3     
   8 C8            -4.6312     0.4399     0.2656 C.2     
   9 N9            -3.7859     1.4301     0.3969 N.2     
  10 N10           -5.9920     0.5793     0.1103 N.am    
  11 S11           -6.6865     2.0798     0.2029 S.o2    
  12 O12           -5.9272     2.9267    -0.6488 O.2     
  13 O13           -8.0863     1.8838     0.0568 O.2     
  14 C14           -6.4355     2.6703     1.8439 C.ar    
  15 C15           -7.0135     2.0094     2.9129 C.ar    
  16 C16           -6.8159     2.4728     4.2017 C.ar    
  17 C17           -6.0410     3.5956     4.4209 C.ar    
  18 C18           -5.4625     4.2566     3.3517 C.ar    
  19 C19           -5.6564     3.7907     2.0636 C.ar    
  20 Cl20          -7.9871     0.5987     2.6374 Cl      
  21 Cl21          -4.4889     5.6672     3.6271 Cl      
  22 O22            1.0755     1.2502     0.9620 O.3     
  23 C23            1.1319     2.6771     1.0144 C.3     
  24 C24           -2.5853    -3.4147     1.3114 C.ar    
  25 C25           -2.7021    -4.7892     1.2518 C.ar    
  26 C26           -1.8947    -5.5192     0.4007 C.ar    
  27 C27           -0.9597    -4.8737    -0.4003 C.ar    
  28 C28           -0.8365    -3.4935    -0.3466 C.ar    
  29 C29           -1.6509    -2.7588     0.5117 C.ar    
  30 N30           -0.1445    -5.6151    -1.2589 N.pl3   
  31 H31            0.6061    -1.3165     0.8246 H       
  32 H32           -1.1686     2.5674     0.7467 H       
  33 H33           -6.5440    -0.2013    -0.0533 H       
  34 H34           -7.2678     1.9572     5.0361 H       
  35 H35           -5.8871     3.9576     5.4267 H       
  36 H36           -5.2045     4.3063     1.2292 H       
  37 H37            0.5326     3.0339     1.8520 H       
  38 H38            2.1661     2.9952     1.1462 H       
  39 H39            0.7402     3.0906     0.0851 H       
  40 H40           -3.2213    -2.8471     1.9746 H       
  41 H41           -3.4265    -5.2954     1.8727 H       
  42 H42           -1.9900    -6.5941     0.3579 H       
  43 H43           -0.1108    -2.9899    -0.9680 H       
  44 H44           -0.2308    -6.5805    -1.2962 H       
  45 H45            0.5078    -5.1645    -1.8177 H       
@<TRIPOS>BOND
   1    1    2 ar
   2    1   22 1
   3    1    6 ar
   4    2    3 ar
   5    2   31 1
   6    3    4 ar
   7    3   29 1
   8    4    5 ar
   9    4    7 1
  10    5    6 ar
  11    5    9 1
  12    6   32 1
  13    7    8 1
  14    8    9 2
  15    8   10 1
  16   10   11 am
  17   10   33 1
  18   11   12 2
  19   11   13 2
  20   11   14 1
  21   14   15 ar
  22   14   19 ar
  23   15   16 ar
  24   15   20 1
  25   16   17 ar
  26   16   34 1
  27   17   18 ar
  28   17   35 1
  29   18   19 ar
  30   18   21 1
  31   19   36 1
  32   22   23 1
  33   23   37 1
  34   23   38 1
  35   23   39 1
  36   24   25 ar
  37   24   29 ar
  38   24   40 1
  39   25   26 ar
  40   25   41 1
  41   26   27 ar
  42   26   42 1
  43   27   28 ar
  44   27   30 1
  45   28   29 ar
  46   28   43 1
  47   30   44 1
  48   30   45 1

#	End of record

