#	Name: ASD01140654
#	Creating user name:	WinNT
#	Creation time:	15. 06. 2019 19:01

#	Modifying user name:	WinNT
#	Modification time:	15. 06. 2019 19:01

#	Program:	/corina/corina34_cracker 3.40 0067  02.08.2006

@<TRIPOS>MOLECULE
ASD01140654
  38   41    0    0    0
SMALL
NO_CHARGES


@<TRIPOS>ATOM
   1 C1            -0.0187     1.5258     0.0104 C.3     
   2 C2             0.0021    -0.0041     0.0020 C.3     
   3 O3            -1.3601    -0.5067     0.0123 O.3     
   4 C4            -1.5186    -1.8452     0.0066 C.2     
   5 O5            -0.5447    -2.5725    -0.0066 O.2     
   6 C6            -2.8706    -2.4261     0.0164 C.2     
   7 N7            -4.0426    -1.7385     0.0254 N.2     
   8 C8            -5.0307    -2.5848     0.0340 C.2     
   9 N9            -4.5318    -3.8564     0.0354 N.pl3   
  10 C10           -3.1792    -3.7523     0.0123 C.2     
  11 C11           -2.2044    -4.9051    -0.0180 C.3     
  12 N12           -2.5150    -5.7025    -1.2138 N.pl3   
  13 N13           -1.7165    -6.0075    -2.1711 N.2     
  14 N14           -2.3306    -6.7078    -3.0593 N.2     
  15 C15           -3.5999    -6.8865    -2.6814 C.2     
  16 C16           -4.6669    -7.6452    -3.4276 C.3     
  17 C17           -3.7370    -6.2442    -1.4835 C.2     
  18 C18           -4.9586    -6.1683    -0.6613 C.ar    
  19 C19           -5.7889    -7.2936    -0.6023 C.ar    
  20 C20           -6.9380    -7.2719     0.1597 C.ar    
  21 Cl21          -7.9611    -8.6728     0.2260 Cl      
  22 C22           -7.2764    -6.1337     0.8724 C.ar    
  23 C23           -6.4682    -5.0168     0.8190 C.ar    
  24 C24           -5.3065    -5.0215     0.0589 C.ar    
  25 H25            1.0039     1.9031     0.0027 H       
  26 H26           -0.5459     1.8868    -0.8726 H       
  27 H27           -0.5289     1.8773     0.9072 H       
  28 H28            0.5123    -0.3556    -0.8948 H       
  29 H29            0.5293    -0.3651     0.8851 H       
  30 H30           -6.0786    -2.3236     0.0393 H       
  31 H31           -1.1838    -4.5272    -0.0783 H       
  32 H32           -2.3233    -5.5159     0.8770 H       
  33 H33           -4.6560    -8.6895    -3.1153 H       
  34 H34           -5.6423    -7.2107    -3.2085 H       
  35 H35           -4.4744    -7.5842    -4.4987 H       
  36 H36           -5.5281    -8.1834    -1.1560 H       
  37 H37           -8.1752    -6.1203     1.4711 H       
  38 H38           -6.7388    -4.1323     1.3766 H       
@<TRIPOS>BOND
   1    1    2 1
   2    1   25 1
   3    1   26 1
   4    1   27 1
   5    2    3 1
   6    2   28 1
   7    2   29 1
   8    3    4 1
   9    4    5 2
  10    4    6 1
  11    6   10 2
  12    6    7 1
  13    7    8 2
  14    8    9 1
  15    8   30 1
  16    9   24 1
  17    9   10 1
  18   10   11 1
  19   11   12 1
  20   11   31 1
  21   11   32 1
  22   12   17 1
  23   12   13 1
  24   13   14 2
  25   14   15 1
  26   15   16 1
  27   15   17 2
  28   16   33 1
  29   16   34 1
  30   16   35 1
  31   17   18 1
  32   18   24 ar
  33   18   19 ar
  34   19   20 ar
  35   19   36 1
  36   20   21 1
  37   20   22 ar
  38   22   23 ar
  39   22   37 1
  40   23   24 ar
  41   23   38 1

#	End of record

