#	Name: ASD00170205
#	Creating user name:	WinNT
#	Creation time:	15. 06. 2019 18:31

#	Modifying user name:	WinNT
#	Modification time:	15. 06. 2019 18:31

#	Program:	/corina/corina34_cracker 3.40 0067  02.08.2006

@<TRIPOS>MOLECULE
ASD00170205
  46   49    0    0    0
SMALL
NO_CHARGES


@<TRIPOS>ATOM
   1 C1             0.0018     1.3503    -0.0670 C.2     
   2 C2             0.0223     0.0151     0.2013 C.2     
   3 C3            -1.3111    -0.5538     0.2781 C.2     
   4 C4            -2.3018     0.3750     0.0641 C.2     
   5 S5            -1.6494     1.9220    -0.2211 S.3     
   6 C6             1.2637    -0.7674     0.3929 C.ar    
   7 C7             2.0757    -0.5322     1.5029 C.ar    
   8 C8             3.2317    -1.2656     1.6760 C.ar    
   9 C9             3.5863    -2.2318     0.7518 C.ar    
  10 C10            2.7852    -2.4699    -0.3512 C.ar    
  11 C11            1.6241    -1.7476    -0.5328 C.ar    
  12 N12           -3.6501     0.0916     0.0833 N.pl3   
  13 C13           -1.5727    -1.9653     0.5533 C.2     
  14 C14           -1.6317    -2.4479     1.9505 C.ar    
  15 O15           -1.7420    -2.7440    -0.3675 O.2     
  16 C16           -1.7699    -3.8112     2.2159 C.ar    
  17 C17           -1.8243    -4.2546     3.5210 C.ar    
  18 C18           -1.7428    -3.3512     4.5659 C.ar    
  19 C19           -1.6063    -1.9983     4.3096 C.ar    
  20 C20           -1.5438    -1.5425     3.0090 C.ar    
  21 C21            1.2012     2.1988    -0.2027 C.ar    
  22 C22            2.2673     1.7840    -1.0048 C.ar    
  23 C23            3.3851     2.5825    -1.1274 C.ar    
  24 C24            3.4522     3.7920    -0.4584 C.ar    
  25 C25            2.4003     4.2091     0.3382 C.ar    
  26 C26            1.2738     3.4236     0.4656 C.ar    
  27 C27            4.1099    -1.0130     2.8743 C.3     
  28 F28            3.7066    -1.8373     3.9302 F       
  29 F29            5.4402    -1.2943     2.5450 F       
  30 F30            3.9984     0.3272     3.2601 F       
  31 H31            1.8003     0.2224     2.2248 H       
  32 H32            4.4924    -2.8026     0.8914 H       
  33 H33            3.0677    -3.2254    -1.0694 H       
  34 H34            0.9996    -1.9345    -1.3939 H       
  35 H35           -3.9557    -0.7958     0.3282 H       
  36 H36           -4.2936     0.7795    -0.1482 H       
  37 H37           -1.8343    -4.5173     1.4012 H       
  38 H38           -1.9312    -5.3093     3.7278 H       
  39 H39           -1.7863    -3.7035     5.5859 H       
  40 H40           -1.5436    -1.2983     5.1296 H       
  41 H41           -1.4372    -0.4863     2.8103 H       
  42 H42            2.2164     0.8401    -1.5273 H       
  43 H43            4.2101     2.2630    -1.7468 H       
  44 H44            4.3300     4.4133    -0.5580 H       
  45 H45            2.4598     5.1539     0.8580 H       
  46 H46            0.4534     3.7505     1.0872 H       
@<TRIPOS>BOND
   1    1    2 2
   2    1   21 1
   3    1    5 1
   4    2    3 1
   5    2    6 1
   6    3    4 2
   7    3   13 1
   8    4    5 1
   9    4   12 1
  10    6    7 ar
  11    6   11 ar
  12    7    8 ar
  13    7   31 1
  14    8    9 ar
  15    8   27 1
  16    9   10 ar
  17    9   32 1
  18   10   11 ar
  19   10   33 1
  20   11   34 1
  21   12   35 1
  22   12   36 1
  23   13   14 1
  24   13   15 2
  25   14   16 ar
  26   14   20 ar
  27   16   17 ar
  28   16   37 1
  29   17   18 ar
  30   17   38 1
  31   18   19 ar
  32   18   39 1
  33   19   20 ar
  34   19   40 1
  35   20   41 1
  36   21   22 ar
  37   21   26 ar
  38   22   23 ar
  39   22   42 1
  40   23   24 ar
  41   23   43 1
  42   24   25 ar
  43   24   44 1
  44   25   26 ar
  45   25   45 1
  46   26   46 1
  47   27   28 1
  48   27   29 1
  49   27   30 1

#	End of record

