#	Name: ASD01811149
#	Creating user name:	WinNT
#	Creation time:	15. 06. 2019 19:26

#	Modifying user name:	WinNT
#	Modification time:	15. 06. 2019 19:26

#	Program:	/corina/corina34_cracker 3.40 0067  02.08.2006

@<TRIPOS>MOLECULE
ASD01811149
  62   65    0    0    0
SMALL
NO_CHARGES


@<TRIPOS>ATOM
   1 C1            -0.0167     1.3794     0.0096 C.ar    
   2 C2             0.0021    -0.0041     0.0020 C.ar    
   3 C3            -1.1811    -0.7175     0.0095 C.ar    
   4 C4            -2.3931    -0.0459     0.0247 C.ar    
   5 C5            -2.4109     1.3490     0.0323 C.ar    
   6 C6            -1.2202     2.0578     0.0305 C.ar    
   7 O7            -3.6822    -0.4650     0.0347 O.3     
   8 C8            -4.4934     0.6044     0.0482 C.2     
   9 N9            -3.7524     1.7301     0.0472 N.am    
  10 O10           -5.7087     0.5637     0.0596 O.2     
  11 C11           -4.2627     3.1033     0.0590 C.3     
  12 C12           -5.1284     3.3382    -1.1820 C.3     
  13 C13           -5.7079     4.7537    -1.1333 C.3     
  14 N14           -6.5130     4.9128     0.0844 N.3     
  15 C15           -5.6927     4.7385     1.2899 C.3     
  16 C16           -5.1128     3.3225     1.3135 C.3     
  17 C17           -8.7373     7.6949     1.3907 C.3     
  18 C18           -8.0244     6.3412     1.3778 C.3     
  19 C19           -7.1976     6.2125     0.0969 C.3     
  20 C20           -6.1601     7.3359     0.0445 C.3     
  21 C21           -6.8731     8.6895     0.0574 C.3     
  22 C22           -7.6999     8.8182     1.3383 C.3     
  23 O23           -8.3658    10.0825     1.3504 O.3     
  24 C24           -8.1212     6.3141    -1.1187 C.3     
  25 C25           -8.5861    10.6109     2.6598 C.3     
  26 C26           -9.3016    11.9590     2.5520 C.3     
  27 S27            1.4986     2.2787    -0.0000 S.o2    
  28 O28            1.1745     3.5180     0.6150 O.2     
  29 O29            2.4369     1.3905     0.5915 O.2     
  30 C30            1.8710     2.5191    -1.7590 C.3     
  31 H31            0.9460    -0.5287    -0.0102 H       
  32 H32           -1.1613    -1.7973     0.0031 H       
  33 H33           -1.2330     3.1377     0.0368 H       
  34 H34           -3.4267     3.8027     0.0576 H       
  35 H35           -4.5181     3.2254    -2.0780 H       
  36 H36           -5.9415     2.6125    -1.2011 H       
  37 H37           -4.8944     5.4792    -1.1281 H       
  38 H38           -6.3363     4.9192    -2.0084 H       
  39 H39           -4.8793     5.4641     1.2837 H       
  40 H40           -6.3102     4.8929     2.1748 H       
  41 H41           -5.9257     2.5966     1.3337 H       
  42 H42           -4.4914     3.1985     2.2004 H       
  43 H43           -9.3953     7.7673     0.5248 H       
  44 H44           -9.3264     7.7866     2.3033 H       
  45 H45           -7.3664     6.2688     2.2438 H       
  46 H46           -8.7634     5.5409     1.4151 H       
  47 H47           -5.5022     7.2635     0.9104 H       
  48 H48           -5.5711     7.2442    -0.8681 H       
  49 H49           -6.1341     9.4898     0.0201 H       
  50 H50           -7.5311     8.7619    -0.8086 H       
  51 H51           -7.0419     8.7458     2.2043 H       
  52 H52           -8.6291     7.2785    -1.1095 H       
  53 H53           -7.5321     6.2224    -2.0312 H       
  54 H54           -8.8602     5.5138    -1.0813 H       
  55 H55           -9.2020     9.9175     3.2325 H       
  56 H56           -7.6286    10.7469     3.1625 H       
  57 H57           -8.6857    12.6524     1.9792 H       
  58 H58          -10.2591    11.8230     2.0492 H       
  59 H59           -9.4696    12.3621     3.5507 H       
  60 H60            1.0624     3.0794    -2.2284 H       
  61 H61            2.8039     3.0738    -1.8603 H       
  62 H62            1.9707     1.5487    -2.2452 H       
@<TRIPOS>BOND
   1    1    2 ar
   2    1   27 1
   3    1    6 ar
   4    2    3 ar
   5    2   31 1
   6    3    4 ar
   7    3   32 1
   8    4    5 ar
   9    4    7 1
  10    5    6 ar
  11    5    9 1
  12    6   33 1
  13    7    8 1
  14    8    9 am
  15    8   10 2
  16    9   11 1
  17   11   12 1
  18   11   16 1
  19   11   34 1
  20   12   13 1
  21   12   35 1
  22   12   36 1
  23   13   14 1
  24   13   37 1
  25   13   38 1
  26   14   15 1
  27   14   19 1
  28   15   16 1
  29   15   39 1
  30   15   40 1
  31   16   41 1
  32   16   42 1
  33   17   18 1
  34   17   22 1
  35   17   43 1
  36   17   44 1
  37   18   19 1
  38   18   45 1
  39   18   46 1
  40   19   20 1
  41   19   24 1
  42   20   21 1
  43   20   47 1
  44   20   48 1
  45   21   22 1
  46   21   49 1
  47   21   50 1
  48   22   23 1
  49   22   51 1
  50   23   25 1
  51   24   52 1
  52   24   53 1
  53   24   54 1
  54   25   26 1
  55   25   55 1
  56   25   56 1
  57   26   57 1
  58   26   58 1
  59   26   59 1
  60   27   28 2
  61   27   29 2
  62   27   30 1
  63   30   60 1
  64   30   61 1
  65   30   62 1

#	End of record

