#	Name: ASD04560049
#	Creating user name:	WinNT
#	Creation time:	15. 06. 2019 20:49

#	Modifying user name:	WinNT
#	Modification time:	15. 06. 2019 20:49

#	Program:	/corina/corina34_cracker 3.40 0067  02.08.2006

@<TRIPOS>MOLECULE
ASD04560049
  46   48    0    0    0
SMALL
NO_CHARGES


@<TRIPOS>ATOM
   1 C1            -0.0173     1.3666     0.0244 C.ar    
   2 C2             0.0010    -0.0041     0.0241 C.ar    
   3 C3             1.2157    -0.6859     0.0136 C.ar    
   4 C4             2.4151     0.0225     0.0039 C.ar    
   5 C5             2.4031     1.3933     0.0042 C.ar    
   6 C6             1.1852     2.0805     0.0143 C.ar    
   7 C7             1.1690     3.5549     0.0141 C.2     
   8 O8             2.2154     4.1746     0.0053 O.2     
   9 N9            -0.0055     4.2159     0.0238 N.am    
  10 C10           -0.0226     5.6108     0.1367 C.ar    
  11 C11           -0.9921     6.3504    -0.5279 C.ar    
  12 C12            0.9079     7.6335     1.0278 C.ar    
  13 C13            0.9265     6.2569     0.9179 C.ar    
  14 F14           -0.0727     9.7160     0.4686 F       
  15 S15            1.2351    -2.4478     0.0132 S.3     
  16 C16           -1.0071     7.7268    -0.4152 C.ar    
  17 C17           -0.0563     8.3694     0.3597 C.ar    
  18 C18            4.6680    -4.6775    -0.0165 C.2     
  19 C19            5.4375    -4.8425    -1.1173 C.2     
  20 C20            5.4816    -4.8534     1.1076 C.2     
  21 N21            6.6958    -5.1148     0.6964 N.2     
  22 N22            6.6934    -5.1134    -0.7044 N.pl3   
  23 C23            4.9748    -4.7420    -2.5479 C.3     
  24 C24            5.0364    -4.7580     2.5442 C.3     
  25 C25            3.0069    -2.8364    -0.0020 C.3     
  26 C26            3.1960    -4.3547    -0.0039 C.3     
  27 H27           -0.9594     1.8947     0.0280 H       
  28 H28           -0.9274    -0.5560     0.0322 H       
  29 H29            3.3553    -0.5088    -0.0035 H       
  30 H30            3.3333     1.9420    -0.0029 H       
  31 H31           -0.8390     3.7249    -0.0474 H       
  32 H32           -1.7336     5.8496    -1.1326 H       
  33 H33            1.6459     8.1363     1.6353 H       
  34 H34            1.6784     5.6833     1.4393 H       
  35 H35           -1.7607     8.3024    -0.9321 H       
  36 H36            7.4592    -5.2777    -1.2766 H       
  37 H37            5.0797    -3.7131    -2.8922 H       
  38 H38            5.5810    -5.3978    -3.1728 H       
  39 H39            3.9290    -5.0422    -2.6136 H       
  40 H40            4.7124    -5.7395     2.8902 H       
  41 H41            5.8668    -4.4117     3.1596 H       
  42 H42            4.2082    -4.0537     2.6219 H       
  43 H43            3.4643    -2.4122    -0.8959 H       
  44 H44            3.4794    -2.4125     0.8840 H       
  45 H45            2.7235    -4.7786    -0.8899 H       
  46 H46            2.7387    -4.7789     0.8900 H       
@<TRIPOS>BOND
   1    1    2 ar
   2    1    6 ar
   3    1   27 1
   4    2    3 ar
   5    2   28 1
   6    3    4 ar
   7    3   15 1
   8    4    5 ar
   9    4   29 1
  10    5    6 ar
  11    5   30 1
  12    6    7 1
  13    7    8 2
  14    7    9 am
  15    9   10 1
  16    9   31 1
  17   10   11 ar
  18   10   13 ar
  19   11   16 ar
  20   11   32 1
  21   12   13 ar
  22   12   17 ar
  23   12   33 1
  24   13   34 1
  25   14   17 1
  26   15   25 1
  27   16   17 ar
  28   16   35 1
  29   18   20 1
  30   18   19 2
  31   18   26 1
  32   19   23 1
  33   19   22 1
  34   20   21 2
  35   20   24 1
  36   21   22 1
  37   22   36 1
  38   23   37 1
  39   23   38 1
  40   23   39 1
  41   24   40 1
  42   24   41 1
  43   24   42 1
  44   25   26 1
  45   25   43 1
  46   25   44 1
  47   26   45 1
  48   26   46 1

#	End of record

