#	Name: ASD03092813
#	Creating user name:	WinNT
#	Creation time:	15. 06. 2019 20:33

#	Modifying user name:	WinNT
#	Modification time:	15. 06. 2019 20:33

#	Program:	/corina/corina34_cracker 3.40 0067  02.08.2006

@<TRIPOS>MOLECULE
ASD03092813
  50   53    0    0    0
SMALL
NO_CHARGES


@<TRIPOS>ATOM
   1 F1            -0.0178    -0.0064    -0.0107 F       
   2 C2            -0.0336     1.3444    -0.0023 C.ar    
   3 C3            -1.2502     2.0194     0.0243 C.ar    
   4 C4            -1.2881     3.3832     0.0332 C.ar    
   5 C5            -0.0941     4.1122     0.0159 C.ar    
   6 C6             0.2223     5.5372     0.0182 C.2     
   7 N7             1.5189     5.6570    -0.0049 N.2     
   8 N8             2.1180     4.3933    -0.0231 N.pl3   
   9 H9             3.0729     4.2234    -0.0411 H       
  10 C10            1.1397     3.4335    -0.0106 C.ar    
  11 C11            1.1555     2.0413    -0.0145 C.ar    
  12 C12           -0.7736     6.6679     0.0422 C.3     
  13 C13           -0.5482     7.5194     1.2937 C.3     
  14 C14           -1.5842     8.6472     1.3326 C.3     
  15 N15           -1.5139     9.3977     0.0714 N.am    
  16 C16           -1.6280     8.6624    -1.1955 C.3     
  17 C17           -0.5915     7.5344    -1.2060 C.3     
  18 C18           -1.3483    10.7352     0.0765 C.2     
  19 O19           -1.3500    11.3440     1.1290 O.2     
  20 N20           -1.1807    11.3980    -1.0850 N.am    
  21 C21           -1.1131    12.8614    -1.0902 C.3     
  22 C22            0.3213    13.3067    -0.7987 C.3     
  23 C23            0.3919    14.8351    -0.8041 C.3     
  24 C24           -0.0365    15.3606    -2.1757 C.3     
  25 C25           -1.4710    14.9152    -2.4672 C.3     
  26 C26           -1.5415    13.3868    -2.4618 C.3     
  27 H27           -2.1730     1.4585     0.0377 H       
  28 H28           -2.2370     3.8985     0.0532 H       
  29 H29            2.0955     1.5097    -0.0310 H       
  30 H30           -1.7847     6.2610     0.0574 H       
  31 H31           -0.6551     6.8965     2.1817 H       
  32 H32            0.4541     7.9470     1.2672 H       
  33 H33           -2.5815     8.2233     1.4504 H       
  34 H34           -1.3674     9.3140     2.1671 H       
  35 H35           -2.6288     8.2397    -1.2838 H       
  36 H36           -1.4400     9.3391    -2.0290 H       
  37 H37            0.4113     7.9618    -1.2090 H       
  38 H38           -0.7291     6.9221    -2.0972 H       
  39 H39           -1.1048    10.9060    -1.9175 H       
  40 H40           -1.7796    13.2586    -0.3245 H       
  41 H41            0.6265    12.9324     0.1785 H       
  42 H42            0.9877    12.9095    -1.5643 H       
  43 H43           -0.2746    15.2323    -0.0385 H       
  44 H44            1.4138    15.1524    -0.5964 H       
  45 H45            0.0137    16.4494    -2.1795 H       
  46 H46            0.6299    14.9634    -2.9413 H       
  47 H47           -2.1374    15.3124    -1.7016 H       
  48 H48           -1.7762    15.2896    -3.4443 H       
  49 H49           -0.8751    12.9896    -3.2274 H       
  50 H50           -2.5634    13.0696    -2.6694 H       
@<TRIPOS>BOND
   1    1    2 1
   2    2   11 ar
   3    2    3 ar
   4    3    4 ar
   5    3   27 1
   6    4    5 ar
   7    4   28 1
   8    5   10 ar
   9    5    6 1
  10    6    7 2
  11    6   12 1
  12    7    8 1
  13    8    9 1
  14    8   10 1
  15   10   11 ar
  16   11   29 1
  17   12   17 1
  18   12   13 1
  19   12   30 1
  20   13   14 1
  21   13   31 1
  22   13   32 1
  23   14   15 1
  24   14   33 1
  25   14   34 1
  26   15   16 1
  27   15   18 am
  28   16   17 1
  29   16   35 1
  30   16   36 1
  31   17   37 1
  32   17   38 1
  33   18   19 2
  34   18   20 am
  35   20   21 1
  36   20   39 1
  37   21   26 1
  38   21   22 1
  39   21   40 1
  40   22   23 1
  41   22   41 1
  42   22   42 1
  43   23   24 1
  44   23   43 1
  45   23   44 1
  46   24   25 1
  47   24   45 1
  48   24   46 1
  49   25   26 1
  50   25   47 1
  51   25   48 1
  52   26   49 1
  53   26   50 1

#	End of record

