#	Name: ASD01913774
#	Creating user name:	WinNT
#	Creation time:	15. 06. 2019 20:02

#	Modifying user name:	WinNT
#	Modification time:	15. 06. 2019 20:02

#	Program:	/corina/corina34_cracker 3.40 0067  02.08.2006

@<TRIPOS>MOLECULE
ASD01913774
  46   48    0    0    0
SMALL
NO_CHARGES


@<TRIPOS>ATOM
   1 O1            -0.0163     1.3508     0.0095 O.3     
   2 C2             0.0021    -0.0041     0.0020 C.ar    
   3 N3             1.1629    -0.6408    -0.0125 N.ar    
   4 C4             1.2330    -1.9556    -0.0202 C.ar    
   5 C5             0.0719    -2.7293    -0.0137 C.ar    
   6 C6            -1.1744    -2.0856     0.0016 C.ar    
   7 C7            -1.1994    -0.7064     0.0154 C.ar    
   8 C8             0.1538    -4.2032    -0.0234 C.2     
   9 N9             1.3565    -4.8112    -0.0386 N.am    
  10 O10           -0.8637    -4.8686    -0.0177 O.2     
  11 C11            1.2480     2.0168     0.0010 C.3     
  12 C12            1.0303     3.5079     0.0111 C.ar    
  13 C13            0.9420     4.1849     1.2124 C.ar    
  14 C14            0.7419     5.5551     1.2214 C.ar    
  15 C15            0.6307     6.2452     0.0264 C.ar    
  16 C16            0.7194     5.5659    -1.1741 C.ar    
  17 C17            0.9247     4.1990    -1.1819 C.ar    
  18 C18            1.4378    -6.2739    -0.0482 C.3     
  19 F19            0.6550     6.2180     2.3954 F       
  20 C20            2.7810    -6.7311     0.5472 C.3     
  21 C21            3.5111    -7.5149    -0.5630 C.3     
  22 C22            2.8892    -6.9806    -1.8771 C.3     
  23 C23            1.3985    -6.7958    -1.4994 C.3     
  24 C24            3.6112    -5.5150     0.9627 C.3     
  25 O25            2.5534    -7.5779     1.6755 O.3     
  26 H26            2.1983    -2.4397    -0.0320 H       
  27 H27           -2.0916    -2.6557     0.0069 H       
  28 H28           -2.1409    -0.1774     0.0278 H       
  29 H29            2.1684    -4.2803    -0.0432 H       
  30 H30            1.8174     1.7267     0.8840 H       
  31 H31            1.8004     1.7363    -0.8958 H       
  32 H32            1.0285     3.6455     2.1440 H       
  33 H33            0.4743     7.3138     0.0322 H       
  34 H34            0.6326     6.1040    -2.1065 H       
  35 H35            0.9942     3.6691    -2.1204 H       
  36 H36            0.6123    -6.6972     0.5241 H       
  37 H37            4.5810    -7.3081    -0.5355 H       
  38 H38            3.3255    -8.5841    -0.4603 H       
  39 H39            3.3378    -6.0274    -2.1571 H       
  40 H40            2.9968    -7.7100    -2.6799 H       
  41 H41            0.8717    -7.7489    -1.5479 H       
  42 H42            0.9266    -6.0642    -2.1553 H       
  43 H43            3.0647    -4.9405     1.7107 H       
  44 H44            4.5599    -5.8490     1.3829 H       
  45 H45            3.8003    -4.8890     0.0907 H       
  46 H46            3.3629    -7.8995     2.0956 H       
@<TRIPOS>BOND
   1    1    2 1
   2    1   11 1
   3    2    3 ar
   4    2    7 ar
   5    3    4 ar
   6    4    5 ar
   7    4   26 1
   8    5    6 ar
   9    5    8 1
  10    6    7 ar
  11    6   27 1
  12    7   28 1
  13    8    9 am
  14    8   10 2
  15    9   18 1
  16    9   29 1
  17   11   12 1
  18   11   30 1
  19   11   31 1
  20   12   13 ar
  21   12   17 ar
  22   13   14 ar
  23   13   32 1
  24   14   15 ar
  25   14   19 1
  26   15   16 ar
  27   15   33 1
  28   16   17 ar
  29   16   34 1
  30   17   35 1
  31   18   20 1
  32   18   23 1
  33   18   36 1
  34   20   21 1
  35   20   24 1
  36   20   25 1
  37   21   22 1
  38   21   37 1
  39   21   38 1
  40   22   23 1
  41   22   39 1
  42   22   40 1
  43   23   41 1
  44   23   42 1
  45   24   43 1
  46   24   44 1
  47   24   45 1
  48   25   46 1

#	End of record

