#	Name: ASD01915463
#	Creating user name:	WinNT
#	Creation time:	15. 06. 2019 20:05

#	Modifying user name:	WinNT
#	Modification time:	15. 06. 2019 20:05

#	Program:	/corina/corina34_cracker 3.40 0067  02.08.2006

@<TRIPOS>MOLECULE
ASD01915463
  38   40    0    0    0
SMALL
NO_CHARGES


@<TRIPOS>ATOM
   1 C1             0.0402     1.1070    -0.6635 C.ar    
   2 C2             0.2162    -0.2425    -0.9100 C.ar    
   3 N3             1.4058    -0.7982    -0.8191 N.ar    
   4 C4             2.4832    -0.0948    -0.4896 C.ar    
   5 C5             2.3863     1.2680    -0.2272 C.ar    
   6 C6             1.1410     1.8850    -0.3146 C.ar    
   7 C7            -0.9718    -1.0893    -1.2879 C.3     
   8 O8             1.0038     3.2125    -0.0668 O.3     
   9 C9            -0.2369     3.7567    -0.1742 C.ar    
  10 C10           -1.1688     3.5870     0.8408 C.ar    
  11 N11           -2.3763     4.1098     0.7491 N.ar    
  12 C12           -2.7539     4.8115    -0.2989 C.ar    
  13 C13           -1.8776     5.0291    -1.3641 C.ar    
  14 C14           -0.5860     4.4943    -1.2981 C.ar    
  15 C15            3.7999    -0.7676    -0.4003 C.2     
  16 N16            3.9006    -2.0877    -0.6528 N.am    
  17 O17            4.7892    -0.1294    -0.0993 O.2     
  18 C18            5.1529    -2.7001    -0.6722 C.ar    
  19 C19            5.2607    -4.0343    -1.0471 C.ar    
  20 C20            6.5093    -4.6308    -1.0628 C.ar    
  21 C21            7.6129    -3.8676    -0.7010 C.ar    
  22 C22            7.4311    -2.5450    -0.3389 C.ar    
  23 N23            6.2281    -2.0037    -0.3388 N.ar    
  24 C24           -2.2918     5.7924    -2.5028 C.1     
  25 N25           -2.6203     6.3979    -3.4060 N.1     
  26 F26            8.8496    -4.4115    -0.7024 F       
  27 H27           -0.9399     1.5534    -0.7450 H       
  28 H28            3.2632     1.8384     0.0410 H       
  29 H29           -1.0876    -1.0898    -2.3717 H       
  30 H30           -0.8162    -2.1100    -0.9386 H       
  31 H31           -1.8708    -0.6804    -0.8266 H       
  32 H32           -0.9011     3.0178     1.7187 H       
  33 H33           -3.7519     5.2228    -0.3353 H       
  34 H34            0.1175     4.6432    -2.1040 H       
  35 H35            3.1019    -2.6116    -0.8211 H       
  36 H36            4.3815    -4.5980    -1.3220 H       
  37 H37            6.6234    -5.6659    -1.3494 H       
  38 H38            8.2850    -1.9470    -0.0568 H       
@<TRIPOS>BOND
   1    1    2 ar
   2    1    6 ar
   3    1   27 1
   4    2    3 ar
   5    2    7 1
   6    3    4 ar
   7    4    5 ar
   8    4   15 1
   9    5    6 ar
  10    5   28 1
  11    6    8 1
  12    7   29 1
  13    7   30 1
  14    7   31 1
  15    8    9 1
  16    9   10 ar
  17    9   14 ar
  18   10   11 ar
  19   10   32 1
  20   11   12 ar
  21   12   13 ar
  22   12   33 1
  23   13   14 ar
  24   13   24 1
  25   14   34 1
  26   15   16 am
  27   15   17 2
  28   16   18 1
  29   16   35 1
  30   18   19 ar
  31   18   23 ar
  32   19   20 ar
  33   19   36 1
  34   20   21 ar
  35   20   37 1
  36   21   22 ar
  37   21   26 1
  38   22   23 ar
  39   22   38 1
  40   24   25 3

#	End of record

