#	Name: ASD01914124
#	Creating user name:	WinNT
#	Creation time:	15. 06. 2019 20:02

#	Modifying user name:	WinNT
#	Modification time:	15. 06. 2019 20:02

#	Program:	/corina/corina34_cracker 3.40 0067  02.08.2006

@<TRIPOS>MOLECULE
ASD01914124
  45   48    0    0    0
SMALL
NO_CHARGES


@<TRIPOS>ATOM
   1 C1            -0.9687     1.6469    -0.2083 C.2     
   2 C2            -0.7871     0.1896    -0.2007 C.2     
   3 N3            -1.7408    -0.7273    -0.1260 N.2     
   4 C4            -1.1059    -1.9083    -0.1518 C.2     
   5 N5             0.1699    -1.6694    -0.2386 N.2     
   6 O6             0.3784    -0.4752    -0.2742 O.3     
   7 C7            -1.7538    -3.2675    -0.0912 C.3     
   8 C8            -1.4056    -4.0562    -1.3556 C.3     
   9 C9            -2.0898    -5.4244    -1.3101 C.3     
  10 C10           -1.5784    -6.2065    -0.0963 C.3     
  11 N11           -1.7782    -5.3915     1.1098 N.am    
  12 C12           -1.2386    -4.0252     1.1365 C.3     
  13 C13           -0.0886    -6.5078    -0.2708 C.3     
  14 C14           -2.4438    -5.8878     2.1715 C.2     
  15 C15           -2.5251    -5.1073     3.4231 C.ar    
  16 C16           -3.7248    -5.0481     4.1353 C.ar    
  17 C17           -3.7952    -4.3183     5.3025 C.ar    
  18 C18           -2.6775    -3.6437     5.7697 C.ar    
  19 C19           -1.4840    -3.6988     5.0663 C.ar    
  20 C20           -1.4009    -4.4307     3.9012 C.ar    
  21 O21           -2.9772    -6.9778     2.0991 O.2     
  22 C22            0.0314     2.5910    -0.2865 C.2     
  23 C23           -0.5856     3.8485    -0.2628 C.2     
  24 C24           -1.9220     3.6528    -0.1725 C.2     
  25 N25           -2.1681     2.3161    -0.1446 N.pl3   
  26 Cl26           0.2203     5.3844    -0.3356 Cl      
  27 F27           -2.7519    -2.9299     6.9143 F       
  28 H28           -2.8354    -3.1522    -0.0206 H       
  29 H29           -1.7494    -3.5072    -2.2323 H       
  30 H30           -0.3256    -4.1921    -1.4130 H       
  31 H31           -3.1683    -5.2892    -1.2278 H       
  32 H32           -1.8604    -5.9764    -2.2216 H       
  33 H33           -2.1336    -7.1399    -0.0026 H       
  34 H34           -0.1494    -4.0620     1.1127 H       
  35 H35           -1.5694    -3.5193     2.0435 H       
  36 H36            0.4636    -5.5720    -0.3577 H       
  37 H37            0.2733    -7.0642     0.5938 H       
  38 H38            0.0588    -7.1017    -1.1728 H       
  39 H39           -4.5961    -5.5729     3.7720 H       
  40 H40           -4.7226    -4.2716     5.8539 H       
  41 H41           -0.6165    -3.1712     5.4344 H       
  42 H42           -0.4706    -4.4732     3.3542 H       
  43 H43            1.0919     2.3980    -0.3529 H       
  44 H44           -2.6702     4.4307    -0.1338 H       
  45 H45           -3.0437     1.9032    -0.0833 H       
@<TRIPOS>BOND
   1    1    2 1
   2    1   22 2
   3    1   25 1
   4    2    3 2
   5    2    6 1
   6    3    4 1
   7    4    5 2
   8    4    7 1
   9    5    6 1
  10    7    8 1
  11    7   12 1
  12    7   28 1
  13    8    9 1
  14    8   29 1
  15    8   30 1
  16    9   10 1
  17    9   31 1
  18    9   32 1
  19   10   11 1
  20   10   13 1
  21   10   33 1
  22   11   12 1
  23   11   14 am
  24   12   34 1
  25   12   35 1
  26   13   36 1
  27   13   37 1
  28   13   38 1
  29   14   15 1
  30   14   21 2
  31   15   16 ar
  32   15   20 ar
  33   16   17 ar
  34   16   39 1
  35   17   18 ar
  36   17   40 1
  37   18   19 ar
  38   18   27 1
  39   19   20 ar
  40   19   41 1
  41   20   42 1
  42   22   23 1
  43   22   43 1
  44   23   24 2
  45   23   26 1
  46   24   25 1
  47   24   44 1
  48   25   45 1

#	End of record

