#	Name: ASD01209060
#	Creating user name:	WinNT
#	Creation time:	15. 06. 2019 19:10

#	Modifying user name:	WinNT
#	Modification time:	15. 06. 2019 19:10

#	Program:	/corina/corina34_cracker 3.40 0067  02.08.2006

@<TRIPOS>MOLECULE
ASD01209060
  56   59    0    0    0
SMALL
NO_CHARGES


@<TRIPOS>ATOM
   1 C1             1.9108     0.9778    -2.4994 C.ar    
   2 C2             2.1852     1.4447    -3.7713 C.ar    
   3 C3             3.3876     2.0749    -4.0317 C.ar    
   4 C4             4.3154     2.2388    -3.0202 C.ar    
   5 C5             4.0407     1.7727    -1.7481 C.ar    
   6 C6             2.8388     1.1412    -1.4880 C.ar    
   7 S7             1.0025     1.2359    -5.0606 S.o2    
   8 O8             1.7791     1.2283    -6.2506 O.2     
   9 O9             0.2533     0.0942    -4.6674 O.2     
  10 C10           -0.0237     2.7295    -4.9797 C.3     
  11 C11            5.0524     1.9509    -0.6455 C.3     
  12 C12            5.9145     4.0137    -2.0038 C.3     
  13 C13           -1.2363     2.8046    -5.9097 C.3     
  14 C14           -1.4359     2.5863    -4.4086 C.3     
  15 C15            4.4543     4.4305    -2.1912 C.3     
  16 C16            4.3342     5.3269    -3.4253 C.3     
  17 C17            5.2003     6.5739    -3.2362 C.3     
  18 C18            6.6604     6.1571    -3.0487 C.3     
  19 C19            6.7805     5.2607    -1.8146 C.3     
  20 C20            6.5202     1.6823    -0.9834 C.3     
  21 C21            6.0346     3.1174    -0.7696 C.3     
  22 C22            4.5782     1.5840     0.7372 C.2     
  23 O23            3.9595     2.3852     1.3957 O.2     
  24 C24            4.8762     0.2174     1.2980 C.3     
  25 C25            6.3197     0.1772     1.8036 C.3     
  26 C26            3.9216    -0.0776     2.4567 C.3     
  27 H27            0.9695     0.4894    -2.2949 H       
  28 H28            3.6023     2.4391    -5.0256 H       
  29 H29            5.2551     2.7306    -3.2238 H       
  30 H30            2.6240     0.7774    -0.4940 H       
  31 H31            0.5111     3.6567    -4.7741 H       
  32 H32            6.2521     3.4670    -2.8842 H       
  33 H33           -1.4995     3.7814    -6.3156 H       
  34 H34           -1.4174     1.9566    -6.5701 H       
  35 H35           -1.7482     1.5946    -4.0814 H       
  36 H36           -1.8304     3.4194    -3.8268 H       
  37 H37            3.8373     3.5421    -2.3260 H       
  38 H38            4.1167     4.9773    -1.3108 H       
  39 H39            4.6719     4.7801    -4.3057 H       
  40 H40            3.2940     5.6238    -3.5589 H       
  41 H41            5.1147     7.2125    -4.1154 H       
  42 H42            4.8626     7.1206    -2.3558 H       
  43 H43            6.9981     5.6103    -3.9291 H       
  44 H44            7.2775     7.0455    -2.9140 H       
  45 H45            6.4429     5.8075    -0.9342 H       
  46 H46            7.8208     4.9638    -1.6811 H       
  47 H47            7.1431     1.2407    -0.2055 H       
  48 H48            6.7541     1.3768    -2.0032 H       
  49 H49            6.3379     3.6198     0.1488 H       
  50 H50            4.7434    -0.5323     0.5180 H       
  51 H51            6.4524     0.9269     2.5836 H       
  52 H52            6.5352    -0.8113     2.2093 H       
  53 H53            6.9998     0.3874     0.9781 H       
  54 H54            2.8943     0.0895     2.1327 H       
  55 H55            4.0396    -1.1150     2.7696 H       
  56 H56            4.1506     0.5826     3.2933 H       
@<TRIPOS>BOND
   1    1    2 ar
   2    1    6 ar
   3    1   27 1
   4    2    3 ar
   5    2    7 1
   6    3    4 ar
   7    3   28 1
   8    4    5 ar
   9    4   29 1
  10    5    6 ar
  11    5   11 1
  12    6   30 1
  13    7    8 2
  14    7    9 2
  15    7   10 1
  16   10   13 1
  17   10   14 1
  18   10   31 1
  19   11   20 1
  20   11   22 1
  21   11   21 1
  22   12   15 1
  23   12   19 1
  24   12   21 1
  25   12   32 1
  26   13   14 1
  27   13   33 1
  28   13   34 1
  29   14   35 1
  30   14   36 1
  31   15   16 1
  32   15   37 1
  33   15   38 1
  34   16   17 1
  35   16   39 1
  36   16   40 1
  37   17   18 1
  38   17   41 1
  39   17   42 1
  40   18   19 1
  41   18   43 1
  42   18   44 1
  43   19   45 1
  44   19   46 1
  45   20   21 1
  46   20   47 1
  47   20   48 1
  48   21   49 1
  49   22   23 2
  50   22   24 1
  51   24   25 1
  52   24   26 1
  53   24   50 1
  54   25   51 1
  55   25   52 1
  56   25   53 1
  57   26   54 1
  58   26   55 1
  59   26   56 1

#	End of record

