#	Name: ASD01881208
#	Creating user name:	WinNT
#	Creation time:	15. 06. 2019 19:42

#	Modifying user name:	WinNT
#	Modification time:	15. 06. 2019 19:42

#	Program:	/corina/corina34_cracker 3.40 0067  02.08.2006

@<TRIPOS>MOLECULE
ASD01881208
  40   42    0    0    0
SMALL
NO_CHARGES


@<TRIPOS>ATOM
   1 N1            -0.0158     1.3168     0.0093 N.ar    
   2 C2             0.0021    -0.0041     0.0020 C.ar    
   3 N3             1.1370    -0.6859    -0.0120 N.ar    
   4 C4             2.3046    -0.0652    -0.0198 C.ar    
   5 C5             2.3349     1.3205    -0.0131 C.ar    
   6 C6             1.1208     2.0113     0.0022 C.ar    
   7 C7             3.6458     2.0639    -0.0212 C.3     
   8 O8             4.7247     1.1269    -0.0356 O.3     
   9 C9             5.9827     1.6359    -0.0443 C.ar    
  10 C10            7.0792     0.7787    -0.0585 C.ar    
  11 C11            8.3513     1.2936    -0.0678 C.ar    
  12 C12            8.5550     2.6778    -0.0631 C.ar    
  13 C13            7.4499     3.5354    -0.0488 C.ar    
  14 C14            6.1743     3.0117    -0.0449 C.ar    
  15 C15            9.7211     0.6621    -0.0839 C.3     
  16 N16           10.6828     1.7703    -0.0877 N.am    
  17 C17           10.0054     2.9311    -0.0757 C.2     
  18 O18           10.5176     4.0338    -0.0757 O.2     
  19 Cl19           7.6839     5.2556    -0.0423 Cl      
  20 C20           12.6350     1.5938    -1.5504 C.3     
  21 C21           12.1414     1.6340    -0.1028 C.3     
  22 C22            1.0985     3.4431     0.0091 C.1     
  23 N23            1.0809     4.5789     0.0147 N.1     
  24 O24           -1.1723    -0.6792     0.0096 O.3     
  25 C25           -1.1003    -2.1064     0.0013 C.3     
  26 H26            3.2241    -0.6316    -0.0310 H       
  27 H27            3.7005     2.6946    -0.9085 H       
  28 H28            3.7164     2.6856     0.8714 H       
  29 H29            6.9290    -0.2908    -0.0618 H       
  30 H30            5.3210     3.6737    -0.0343 H       
  31 H31            9.8610     0.0477     0.8055 H       
  32 H32            9.8439     0.0562    -0.9816 H       
  33 H33           12.1854     0.7440    -2.0641 H       
  34 H34           12.3511     2.5163    -2.0568 H       
  35 H35           13.7202     1.4923    -1.5616 H       
  36 H36           12.5911     2.4837     0.4110 H       
  37 H37           12.4253     0.7115     0.4037 H       
  38 H38           -2.1083    -2.5211     0.0086 H       
  39 H39           -0.5773    -2.4385    -0.8956 H       
  40 H40           -0.5603    -2.4481     0.8843 H       
@<TRIPOS>BOND
   1    1    2 ar
   2    1    6 ar
   3    2    3 ar
   4    2   24 1
   5    3    4 ar
   6    4    5 ar
   7    4   26 1
   8    5    6 ar
   9    5    7 1
  10    6   22 1
  11    7    8 1
  12    7   27 1
  13    7   28 1
  14    8    9 1
  15    9   10 ar
  16    9   14 ar
  17   10   11 ar
  18   10   29 1
  19   11   12 ar
  20   11   15 1
  21   12   13 ar
  22   12   17 1
  23   13   14 ar
  24   13   19 1
  25   14   30 1
  26   15   16 1
  27   15   31 1
  28   15   32 1
  29   16   17 am
  30   16   21 1
  31   17   18 2
  32   20   21 1
  33   20   33 1
  34   20   34 1
  35   20   35 1
  36   21   36 1
  37   21   37 1
  38   22   23 3
  39   24   25 1
  40   25   38 1
  41   25   39 1
  42   25   40 1

#	End of record

