#	Name: ASD01911869
#	Creating user name:	WinNT
#	Creation time:	15. 06. 2019 19:58

#	Modifying user name:	WinNT
#	Modification time:	15. 06. 2019 19:58

#	Program:	/corina/corina34_cracker 3.40 0067  02.08.2006

@<TRIPOS>MOLECULE
ASD01911869
  41   43    0    0    0
SMALL
NO_CHARGES


@<TRIPOS>ATOM
   1 C1            -1.0578    -0.4835    -2.0443 C.ar    
   2 C2            -1.0630     0.0682    -0.7667 C.ar    
   3 C3            -1.0163     1.4478    -0.6284 C.ar    
   4 N4            -0.9675     2.2289    -1.6893 N.ar    
   5 C5            -0.9611     1.7384    -2.9132 C.ar    
   6 C6            -1.0057     0.3738    -3.1312 C.ar    
   7 O7            -1.1137    -0.7331     0.3298 O.3     
   8 C8            -1.1592    -2.0773     0.1360 C.ar    
   9 C9            -0.0047    -2.7695    -0.2027 C.ar    
  10 C10           -0.0497    -4.1374    -0.4006 C.ar    
  11 C11           -1.2445    -4.8194    -0.2613 C.ar    
  12 C12           -2.4023    -4.1311     0.0780 C.ar    
  13 C13           -2.3574    -2.7587     0.2821 C.ar    
  14 N14           -3.6107    -4.8205     0.2184 N.am    
  15 C15           -3.6140    -6.0884     0.6753 C.2     
  16 C16           -4.8809    -6.8543     0.7255 C.ar    
  17 O17           -2.5775    -6.6034     1.0460 O.2     
  18 C18           -4.8777    -8.1643     1.1987 C.ar    
  19 C19           -6.0711    -8.8683     1.2397 C.ar    
  20 C20           -7.2262    -8.2372     0.8059 C.ar    
  21 C21           -7.1556    -6.9312     0.3473 C.ar    
  22 N22           -6.0108    -6.2845     0.3242 N.ar    
  23 C23           -8.4088    -6.2409    -0.1259 C.3     
  24 Cl24           1.3959    -4.9997    -0.8252 Cl      
  25 C25           -0.9043     2.6778    -4.0902 C.3     
  26 H26           -1.0889    -1.5538    -2.1849 H       
  27 H27           -1.0203     1.8864     0.3585 H       
  28 H28           -1.0001    -0.0191    -4.1372 H       
  29 H29            0.9298    -2.2391    -0.3121 H       
  30 H30           -1.2776    -5.8876    -0.4167 H       
  31 H31           -3.2564    -2.2214     0.5459 H       
  32 H32           -4.4466    -4.3861    -0.0130 H       
  33 H33           -3.9584    -8.6252     1.5287 H       
  34 H34           -6.1001    -9.8856     1.6012 H       
  35 H35           -8.1721    -8.7581     0.8247 H       
  36 H36           -8.8815    -5.7305     0.7133 H       
  37 H37           -8.1540    -5.5135    -0.8967 H       
  38 H38           -9.0974    -6.9793    -0.5366 H       
  39 H39            0.1361     2.8675    -4.3538 H       
  40 H40           -1.4181     2.2275    -4.9395 H       
  41 H41           -1.3900     3.6179    -3.8285 H       
@<TRIPOS>BOND
   1    1    2 ar
   2    1    6 ar
   3    1   26 1
   4    2    3 ar
   5    2    7 1
   6    3    4 ar
   7    3   27 1
   8    4    5 ar
   9    5    6 ar
  10    5   25 1
  11    6   28 1
  12    7    8 1
  13    8    9 ar
  14    8   13 ar
  15    9   10 ar
  16    9   29 1
  17   10   11 ar
  18   10   24 1
  19   11   12 ar
  20   11   30 1
  21   12   13 ar
  22   12   14 1
  23   13   31 1
  24   14   15 am
  25   14   32 1
  26   15   16 1
  27   15   17 2
  28   16   18 ar
  29   16   22 ar
  30   18   19 ar
  31   18   33 1
  32   19   20 ar
  33   19   34 1
  34   20   21 ar
  35   20   35 1
  36   21   22 ar
  37   21   23 1
  38   23   36 1
  39   23   37 1
  40   23   38 1
  41   25   39 1
  42   25   40 1
  43   25   41 1

#	End of record

