#	Name: ASD01882901
#	Creating user name:	WinNT
#	Creation time:	15. 06. 2019 19:45

#	Modifying user name:	WinNT
#	Modification time:	15. 06. 2019 19:45

#	Program:	/corina/corina34_cracker 3.40 0067  02.08.2006

@<TRIPOS>MOLECULE
ASD01882901
  26   26    0    0    0
SMALL
NO_CHARGES


@<TRIPOS>ATOM
   1 C1            -0.0173     1.4278     0.0099 C.2     
   2 C2             0.0021    -0.0041     0.0020 C.1     
   3 C3             0.0180    -1.1779    -0.0044 C.1     
   4 O4             1.0268     2.0497     0.0033 O.2     
   5 O5            -1.1938     2.0858     0.0190 O.3     
   6 C6             0.0380    -2.6498    -0.0125 C.3     
   7 C7            -1.4003    -3.1965    -0.0017 C.3     
   8 C8            -1.5677    -4.0221    -1.2941 C.3     
   9 C9            -0.1222    -4.4267    -1.6762 C.3     
  10 C10            0.6945    -3.1622    -1.3111 C.3     
  11 C11           -1.1375     3.5367     0.0267 C.3     
  12 C12           -2.5591     4.1022     0.0365 C.3     
  13 H13            0.5848    -3.0203     0.8546 H       
  14 H14           -1.5513    -3.8330     0.8701 H       
  15 H15           -2.1131    -2.3719     0.0095 H       
  16 H16           -2.1744    -4.9077    -1.1051 H       
  17 H17           -2.0140    -3.4135    -2.0805 H       
  18 H18            0.2076    -5.2828    -1.0878 H       
  19 H19           -0.0496    -4.6387    -2.7429 H       
  20 H20            0.6135    -2.4147    -2.1002 H       
  21 H21            1.7386    -3.4203    -1.1345 H       
  22 H22           -0.6057     3.8750     0.9160 H       
  23 H23           -0.6141     3.8847    -0.8639 H       
  24 H24           -3.0908     3.7639    -0.8528 H       
  25 H25           -3.0824     3.7543     0.9271 H       
  26 H26           -2.5168     5.1914     0.0422 H       
@<TRIPOS>BOND
   1    1    2 1
   2    1    4 2
   3    1    5 1
   4    2    3 3
   5    3    6 1
   6    5   11 1
   7    6    7 1
   8    6   10 1
   9    6   13 1
  10    7    8 1
  11    7   14 1
  12    7   15 1
  13    8    9 1
  14    8   16 1
  15    8   17 1
  16    9   10 1
  17    9   18 1
  18    9   19 1
  19   10   20 1
  20   10   21 1
  21   11   12 1
  22   11   22 1
  23   11   23 1
  24   12   24 1
  25   12   25 1
  26   12   26 1

#	End of record

