#	Name: ASD06350026
#	Creating user name:	WinNT
#	Creation time:	15. 06. 2019 21:06

#	Modifying user name:	WinNT
#	Modification time:	15. 06. 2019 21:06

#	Program:	/corina/corina34_cracker 3.40 0067  02.08.2006

@<TRIPOS>MOLECULE
ASD06350026
  47   50    0    0    0
SMALL
NO_CHARGES


@<TRIPOS>ATOM
   1 N1            -3.5705     0.5738     4.0043 N.pl3   
   2 C2            -3.4135    -0.7615     3.6672 C.ar    
   3 N3            -3.8351    -1.7199     4.4894 N.ar    
   4 C4            -3.6892    -2.9913     4.1758 C.ar    
   5 N5            -3.1256    -3.3695     3.0467 N.ar    
   6 C6            -2.6782    -2.4721     2.1720 C.ar    
   7 C7            -2.8174    -1.1206     2.4607 C.ar    
   8 O8            -2.0994    -2.8712     1.0132 O.3     
   9 C9            -1.9006    -4.2035     0.8245 C.ar    
  10 C10           -0.6463    -4.7540     1.0381 C.ar    
  11 C11           -0.4432    -6.1071     0.8467 C.ar    
  12 C12           -1.4954    -6.9168     0.4407 C.ar    
  13 C13           -2.7525    -6.3664     0.2269 C.ar    
  14 C14           -2.9561    -5.0134     0.4232 C.ar    
  15 F15           -4.1786    -4.4770     0.2160 F       
  16 N16           -1.2891    -8.2880     0.2464 N.am    
  17 C17           -2.2873    -9.1606     0.4884 C.2     
  18 O18           -3.4094    -8.7520     0.7209 O.2     
  19 C19           -2.0201   -10.6066     0.4715 C.2     
  20 C20           -3.0700   -11.5222     0.5178 C.2     
  21 C21           -2.7783   -12.8859     0.5001 C.2     
  22 C22           -1.4889   -13.3062     0.4389 C.2     
  23 N23           -0.4627   -12.4210     0.3936 N.am    
  24 C24           -0.6897   -11.0938     0.4018 C.2     
  25 O25            0.2457   -10.3133     0.3605 O.2     
  26 C26            0.8539   -12.8947     0.3315 C.ar    
  27 C27            1.4241   -13.5099     1.4380 C.ar    
  28 C28            2.7228   -13.9768     1.3759 C.ar    
  29 C29            3.4569   -13.8321     0.2116 C.ar    
  30 C30            2.8902   -13.2175    -0.8956 C.ar    
  31 C31            1.5886   -12.7547    -0.8387 C.ar    
  32 F32            3.6084   -13.0762    -2.0311 F       
  33 F33            4.7268   -14.2895     0.1532 F       
  34 H34           -3.9903     0.8157     4.8446 H       
  35 H35           -3.2571     1.2662     3.4016 H       
  36 H36           -4.0414    -3.7451     4.8643 H       
  37 H37           -2.4650    -0.3676     1.7713 H       
  38 H38            0.1726    -4.1248     1.3539 H       
  39 H39            0.5344    -6.5350     1.0126 H       
  40 H40           -3.5713    -6.9957    -0.0894 H       
  41 H41           -0.4277    -8.6099    -0.0624 H       
  42 H42           -4.0935   -11.1809     0.5671 H       
  43 H43           -3.5798   -13.6090     0.5354 H       
  44 H44           -1.2765   -14.3650     0.4265 H       
  45 H45            0.8524   -13.6231     2.3473 H       
  46 H46            3.1659   -14.4549     2.2370 H       
  47 H47            1.1469   -12.2761    -1.7002 H       
@<TRIPOS>BOND
   1    1    2 1
   2    1   34 1
   3    1   35 1
   4    2    3 ar
   5    2    7 ar
   6    3    4 ar
   7    4    5 ar
   8    4   36 1
   9    5    6 ar
  10    6    7 ar
  11    6    8 1
  12    7   37 1
  13    8    9 1
  14    9   10 ar
  15    9   14 ar
  16   10   11 ar
  17   10   38 1
  18   11   12 ar
  19   11   39 1
  20   12   13 ar
  21   12   16 1
  22   13   14 ar
  23   13   40 1
  24   14   15 1
  25   16   17 am
  26   16   41 1
  27   17   18 2
  28   17   19 1
  29   19   20 2
  30   19   24 1
  31   20   21 1
  32   20   42 1
  33   21   22 2
  34   21   43 1
  35   22   23 1
  36   22   44 1
  37   23   24 am
  38   23   26 1
  39   24   25 2
  40   26   27 ar
  41   26   31 ar
  42   27   28 ar
  43   27   45 1
  44   28   29 ar
  45   28   46 1
  46   29   30 ar
  47   29   33 1
  48   30   31 ar
  49   30   32 1
  50   31   47 1

#	End of record

