#	Name: ASD05430188
#	Creating user name:	WinNT
#	Creation time:	15. 06. 2019 20:59

#	Modifying user name:	WinNT
#	Modification time:	15. 06. 2019 20:59

#	Program:	/corina/corina34_cracker 3.40 0067  02.08.2006

@<TRIPOS>MOLECULE
ASD05430188
  65   70    0    0    0
SMALL
NO_CHARGES


@<TRIPOS>ATOM
   1 C1            -0.0168     1.3884     0.0097 C.ar    
   2 C2             0.0021    -0.0041     0.0020 C.ar    
   3 C3             1.2145    -0.6775    -0.0132 C.ar    
   4 C4             2.3994     0.0334    -0.0207 C.ar    
   5 C5             2.3802     1.4162    -0.0131 C.ar    
   6 C6             1.1759     2.0942     0.0021 C.ar    
   7 C7             5.4791     3.1266    -1.4834 C.3     
   8 C8             4.1005     2.4540    -1.4665 C.3     
   9 C9             3.6758     2.1858    -0.0213 C.3     
  10 C10            5.7811     3.6367    -2.8898 C.3     
  11 C11            4.8445     4.7592    -3.3379 C.3     
  12 N12            3.4699     4.3555    -3.0422 N.pl3   
  13 C13            3.1060     3.3859    -2.1255 C.2     
  14 N14            1.8374     3.4160    -1.9195 N.2     
  15 C15            1.9826     4.2137    -4.9800 C.ar    
  16 C16            0.6956     4.1181    -5.4756 C.ar    
  17 N17           -1.2028    -0.7242     0.0101 N.pl3   
  18 C18           -2.2475    -0.5399     0.8578 C.2     
  19 C19           -1.5492    -1.7421    -0.8399 C.2     
  20 C20           -2.7831    -2.1463    -0.4821 C.2     
  21 N21           -3.1847    -1.3967     0.5550 N.2     
  22 C22           -3.5770    -3.2473    -1.1367 C.3     
  23 C23            0.4707     3.5347    -6.7080 C.ar    
  24 C24            1.5350     3.0458    -7.4465 C.ar    
  25 C25            2.8236     3.1421    -6.9491 C.ar    
  26 C26            3.0460     3.7260    -5.7165 C.ar    
  27 F27            1.3162     2.4748    -8.6512 F       
  28 C28           -1.1448     3.4815     0.0264 C.3     
  29 O29           -1.2023     2.0537     0.0189 O.3     
  30 C30            7.2660     3.9456    -3.1278 C.3     
  31 O31            7.0790     3.2854    -4.3970 O.3     
  32 C32            5.9473     2.5214    -3.9308 C.3     
  33 C33            2.2272     4.8558    -3.6388 C.3     
  34 O34            1.2264     4.4437    -2.6847 O.3     
  35 C35            2.2614     6.3803    -3.7640 C.3     
  36 O36            1.0397     6.8378    -4.3474 O.3     
  37 H37            1.2325    -1.7573    -0.0188 H       
  38 H38            3.3428    -0.4921    -0.0321 H       
  39 H39            1.1643     3.1741     0.0083 H       
  40 H40            5.4835     3.9633    -0.7849 H       
  41 H41            6.2395     2.4035    -1.1883 H       
  42 H42            4.1439     1.5141    -2.0167 H       
  43 H43            3.5387     3.1338     0.4990 H       
  44 H44            4.4476     1.6034     0.4821 H       
  45 H45            5.0831     5.6748    -2.7967 H       
  46 H46            4.9563     4.9252    -4.4094 H       
  47 H47           -0.1345     4.4992    -4.8993 H       
  48 H48           -2.2949     0.1924     1.6501 H       
  49 H49           -0.9482    -2.1429    -1.6428 H       
  50 H50           -3.3567    -4.1953    -0.6460 H       
  51 H51           -4.6414    -3.0304    -1.0470 H       
  52 H52           -3.3071    -3.3124    -2.1908 H       
  53 H53           -0.5349     3.4598    -7.0948 H       
  54 H54            3.6545     2.7611    -7.5243 H       
  55 H55            4.0511     3.8012    -5.3283 H       
  56 H56           -0.6126     3.8191     0.9157 H       
  57 H57           -0.6210     3.8288    -0.8642 H       
  58 H58           -2.1570     3.8859     0.0334 H       
  59 H59            7.4876     5.0095    -3.2120 H       
  60 H60            7.9401     3.4197    -2.4517 H       
  61 H61            6.2133     1.5546    -3.5033 H       
  62 H62            5.1291     2.4619    -4.6485 H       
  63 H63            2.3803     6.8235    -2.7754 H       
  64 H64            3.0987     6.6741    -4.3970 H       
  65 H65            0.9914     7.7973    -4.4572 H       
@<TRIPOS>BOND
   1    1    2 ar
   2    1    6 ar
   3    1   29 1
   4    2    3 ar
   5    2   17 1
   6    3    4 ar
   7    3   37 1
   8    4    5 ar
   9    4   38 1
  10    5    6 ar
  11    5    9 1
  12    6   39 1
  13    7    8 1
  14    7   10 1
  15    7   40 1
  16    7   41 1
  17    8    9 1
  18    8   13 1
  19    8   42 1
  20    9   43 1
  21    9   44 1
  22   10   11 1
  23   10   30 1
  24   10   32 1
  25   11   12 1
  26   11   45 1
  27   11   46 1
  28   12   13 1
  29   12   33 1
  30   13   14 2
  31   14   34 1
  32   15   16 ar
  33   15   26 ar
  34   15   33 1
  35   16   23 ar
  36   16   47 1
  37   17   18 1
  38   17   19 1
  39   18   21 2
  40   18   48 1
  41   19   20 2
  42   19   49 1
  43   20   21 1
  44   20   22 1
  45   22   50 1
  46   22   51 1
  47   22   52 1
  48   23   24 ar
  49   23   53 1
  50   24   25 ar
  51   24   27 1
  52   25   26 ar
  53   25   54 1
  54   26   55 1
  55   28   29 1
  56   28   56 1
  57   28   57 1
  58   28   58 1
  59   30   31 1
  60   30   59 1
  61   30   60 1
  62   31   32 1
  63   32   61 1
  64   32   62 1
  65   33   34 1
  66   33   35 1
  67   35   36 1
  68   35   63 1
  69   35   64 1
  70   36   65 1

#	End of record

