#	Name: ASD03330567
#	Creating user name:	WinNT
#	Creation time:	15. 06. 2019 20:37

#	Modifying user name:	WinNT
#	Modification time:	15. 06. 2019 20:37

#	Program:	/corina/corina34_cracker 3.40 0067  02.08.2006

@<TRIPOS>MOLECULE
ASD03330567
  60   62    0    0    0
SMALL
NO_CHARGES


@<TRIPOS>ATOM
   1 C1            -0.5224     1.8006    -0.6104 C.2     
   2 N2            -0.6467     0.4682    -0.8504 N.pl3   
   3 C3             0.8101     2.0699    -0.5278 C.2     
   4 N4             1.4779     0.9135    -0.7335 N.2     
   5 C5             0.6117    -0.0520    -0.9337 C.2     
   6 C6             0.9444    -1.4675    -1.2048 C.ar    
   7 C7             1.4152     3.3870    -0.2623 C.2     
   8 O8             0.7049     4.3596    -0.0934 O.2     
   9 C9             3.3575     4.8232     0.0573 C.3     
  10 N10            2.7558     3.5137    -0.2067 N.am    
  11 C11            3.4192     5.0610     1.5674 C.3     
  12 C12            4.2235     3.9396     2.2279 C.3     
  13 C13            4.0953     6.4052     1.8448 C.3     
  14 C14            2.0003     5.0762     2.1397 C.3     
  15 C15            4.7513     4.8600    -0.5144 C.2     
  16 N16            5.3513     6.0433    -0.7517 N.am    
  17 O17            5.3332     3.8248    -0.7610 O.2     
  18 C18            6.6651     6.0817    -1.3987 C.3     
  19 C19           -1.9133    -0.2578    -0.9778 C.3     
  20 C20           -2.8456     0.5190    -1.9128 C.3     
  21 C21           -3.6438     1.5424    -1.1115 C.3     
  22 N22           -2.8534     2.0734     0.0008 N.3     
  23 C23           -1.6588     2.7816    -0.4826 C.3     
  24 C24           -3.6696     2.9427     0.8588 C.3     
  25 C25            1.8966    -1.7910    -2.1742 C.ar    
  26 C26            2.2021    -3.1177    -2.4219 C.ar    
  27 C27            1.5659    -4.1203    -1.7118 C.ar    
  28 C28            0.6217    -3.8039    -0.7509 C.ar    
  29 C29            0.3125    -2.4853    -0.4893 C.ar    
  30 F30            2.5170    -0.8118    -2.8681 F       
  31 Cl31           3.3849    -3.5247    -3.6258 Cl      
  32 H32            2.7529     5.6013    -0.4087 H       
  33 H33            3.3224     2.7380    -0.3413 H       
  34 H34            5.2344     3.9288     1.8202 H       
  35 H35            4.2675     4.1090     3.3037 H       
  36 H36            3.7418     2.9820     2.0303 H       
  37 H37            3.5065     7.2069     1.3991 H       
  38 H38            4.1657     6.5612     2.9212 H       
  39 H39            5.0955     6.4050     1.4115 H       
  40 H40            1.5186     4.1186     1.9421 H       
  41 H41            2.0443     5.2456     3.2155 H       
  42 H42            1.4272     5.8751     1.6692 H       
  43 H43            4.9132     6.8695    -0.4941 H       
  44 H44            7.3866     5.5383    -0.7886 H       
  45 H45            6.5991     5.6178    -2.3829 H       
  46 H46            6.9871     7.1175    -1.5061 H       
  47 H47           -1.7254    -1.2486    -1.3915 H       
  48 H48           -2.3785    -0.3537     0.0032 H       
  49 H49           -2.2536     1.0332    -2.6698 H       
  50 H50           -3.5311    -0.1748    -2.3995 H       
  51 H51           -3.9340     2.3629    -1.7678 H       
  52 H52           -4.5416     1.0665    -0.7171 H       
  53 H53           -1.3871     3.5638     0.2261 H       
  54 H54           -1.8676     3.2263    -1.4557 H       
  55 H55           -4.5048     2.3720     1.2647 H       
  56 H56           -3.0580     3.3235     1.6768 H       
  57 H57           -4.0515     3.7778     0.2715 H       
  58 H58            1.8071    -5.1545    -1.9085 H       
  59 H59            0.1285    -4.5917    -0.2009 H       
  60 H60           -0.4246    -2.2413     0.2614 H       
@<TRIPOS>BOND
   1    1    2 1
   2    1    3 2
   3    1   23 1
   4    2   19 1
   5    2    5 1
   6    3    4 1
   7    3    7 1
   8    4    5 2
   9    5    6 1
  10    6   25 ar
  11    6   29 ar
  12    7    8 2
  13    7   10 am
  14    9   10 1
  15    9   11 1
  16    9   15 1
  17    9   32 1
  18   10   33 1
  19   11   12 1
  20   11   13 1
  21   11   14 1
  22   12   34 1
  23   12   35 1
  24   12   36 1
  25   13   37 1
  26   13   38 1
  27   13   39 1
  28   14   40 1
  29   14   41 1
  30   14   42 1
  31   15   16 am
  32   15   17 2
  33   16   18 1
  34   16   43 1
  35   18   44 1
  36   18   45 1
  37   18   46 1
  38   19   20 1
  39   19   47 1
  40   19   48 1
  41   20   21 1
  42   20   49 1
  43   20   50 1
  44   21   22 1
  45   21   51 1
  46   21   52 1
  47   22   23 1
  48   22   24 1
  49   23   53 1
  50   23   54 1
  51   24   55 1
  52   24   56 1
  53   24   57 1
  54   25   26 ar
  55   25   30 1
  56   26   27 ar
  57   26   31 1
  58   27   28 ar
  59   27   58 1
  60   28   29 ar
  61   28   59 1
  62   29   60 1

#	End of record

