#	Name: ASD01870411
#	Creating user name:	WinNT
#	Creation time:	15. 06. 2019 19:39

#	Modifying user name:	WinNT
#	Modification time:	15. 06. 2019 19:39

#	Program:	/corina/corina34_cracker 3.40 0067  02.08.2006

@<TRIPOS>MOLECULE
ASD01870411
  29   30    0    0    0
SMALL
NO_CHARGES


@<TRIPOS>ATOM
   1 C1            -0.0162     1.3436     0.0094 C.2     
   2 N2             0.0021    -0.0041     0.0020 N.am    
   3 O3             1.0257     1.9642     0.0028 O.2     
   4 C4             1.2121    -0.6809    -0.0132 C.2     
   5 O5             2.4275    -0.1120    -0.0213 O.3     
   6 C6             3.3451    -1.1023    -0.0350 C.2     
   7 C7             2.6758    -2.2653    -0.0352 C.2     
   8 N8             1.3598    -1.9821    -0.0163 N.2     
   9 C9            -1.3314     2.0792     0.0197 C.3     
  10 C10            3.2878    -3.6423    -0.0482 C.3     
  11 C11           -1.0739     3.5892     0.0267 C.3     
  12 C12           -2.4131     4.3277    -0.0425 C.3     
  13 O13           -3.1203     3.9201    -1.2155 O.3     
  14 C14           -3.4305     2.5257    -1.2547 C.3     
  15 C15           -2.1322     1.7148    -1.2342 C.3     
  16 H16           -0.8313    -0.5005     0.0073 H       
  17 H17            4.4183    -0.9810    -0.0442 H       
  18 H18           -1.8975     1.8018     0.9089 H       
  19 H19            3.4447    -3.9799     0.9763 H       
  20 H20            2.6174    -4.3331    -0.5596 H       
  21 H21            4.2439    -3.6101    -0.5706 H       
  22 H22           -0.5524     3.8655     0.9431 H       
  23 H23           -0.4643     3.8587    -0.8358 H       
  24 H24           -3.0058     4.0892     0.8406 H       
  25 H25           -2.2341     5.4022    -0.0810 H       
  26 H26           -4.0365     2.2636    -0.3874 H       
  27 H27           -3.9844     2.3021    -2.1664 H       
  28 H28           -1.5440     1.9464    -2.1222 H       
  29 H29           -2.3676     0.6506    -1.2196 H       
@<TRIPOS>BOND
   1    1    2 am
   2    1    3 2
   3    1    9 1
   4    2    4 1
   5    2   16 1
   6    4    5 1
   7    4    8 2
   8    5    6 1
   9    6    7 2
  10    6   17 1
  11    7    8 1
  12    7   10 1
  13    9   11 1
  14    9   15 1
  15    9   18 1
  16   10   19 1
  17   10   20 1
  18   10   21 1
  19   11   12 1
  20   11   22 1
  21   11   23 1
  22   12   13 1
  23   12   24 1
  24   12   25 1
  25   13   14 1
  26   14   15 1
  27   14   26 1
  28   14   27 1
  29   15   28 1
  30   15   29 1

#	End of record

