#	Name: ASD01811549
#	Creating user name:	WinNT
#	Creation time:	15. 06. 2019 19:26

#	Modifying user name:	WinNT
#	Modification time:	15. 06. 2019 19:26

#	Program:	/corina/corina34_cracker 3.40 0067  02.08.2006

@<TRIPOS>MOLECULE
ASD01811549
  32   32    0    0    0
SMALL
NO_CHARGES


@<TRIPOS>ATOM
   1 C1            -0.0187     1.5296     0.0105 C.3     
   2 C2             0.0021    -0.0041     0.0020 C.3     
   3 C3             0.9131    -0.4751    -1.1035 C.2     
   4 C4             1.9976     0.3135    -1.5161 C.2     
   5 C5             2.2211     1.5287    -0.9684 C.2     
   6 N6             1.3723     2.0068    -0.0003 N.am    
   7 C7             1.8045     2.8928     0.9188 C.2     
   8 O8             1.0420     3.3065     1.7692 O.2     
   9 O9             3.0811     3.3192     0.8945 O.3     
  10 O10            0.7067    -1.5453    -1.6403 O.2     
  11 C11           -0.7504     2.0429    -1.2313 C.3     
  12 C12            3.4769     4.2734     1.9149 C.3     
  13 C13            3.2772     3.6524     3.2988 C.3     
  14 C14            4.9508     4.6384     1.7275 C.3     
  15 C15            2.6197     5.5349     1.7934 C.3     
  16 H16           -0.5230     1.8857     0.9088 H       
  17 H17            0.3719    -0.3693     0.9601 H       
  18 H18           -1.0058    -0.3817    -0.1699 H       
  19 H19            2.6634    -0.0558    -2.2821 H       
  20 H20            3.0641     2.1217    -1.2910 H       
  21 H21           -1.7739     1.6679    -1.2310 H       
  22 H22           -0.7627     3.1328    -1.2212 H       
  23 H23           -0.2358     1.6937    -2.1265 H       
  24 H24            3.8879     2.7537     3.3854 H       
  25 H25            3.5743     4.3688     4.0648 H       
  26 H26            2.2271     3.3924     3.4323 H       
  27 H27            5.0931     5.0808     0.7415 H       
  28 H28            5.2480     5.3548     2.4935 H       
  29 H29            5.5615     3.7397     1.8140 H       
  30 H30            1.5696     5.2749     1.9269 H       
  31 H31            2.9168     6.2512     2.5594 H       
  32 H32            2.7619     5.9773     0.8075 H       
@<TRIPOS>BOND
   1    1    2 1
   2    1    6 1
   3    1   11 1
   4    1   16 1
   5    2    3 1
   6    2   17 1
   7    2   18 1
   8    3    4 1
   9    3   10 2
  10    4    5 2
  11    4   19 1
  12    5    6 1
  13    5   20 1
  14    6    7 am
  15    7    8 2
  16    7    9 1
  17    9   12 1
  18   11   21 1
  19   11   22 1
  20   11   23 1
  21   12   13 1
  22   12   15 1
  23   12   14 1
  24   13   24 1
  25   13   25 1
  26   13   26 1
  27   14   27 1
  28   14   28 1
  29   14   29 1
  30   15   30 1
  31   15   31 1
  32   15   32 1

#	End of record

