#	Name: ASD05313101
#	Creating user name:	WinNT
#	Creation time:	15. 06. 2019 20:58

#	Modifying user name:	WinNT
#	Modification time:	15. 06. 2019 20:58

#	Program:	/corina/corina34_cracker 3.40 0067  02.08.2006

@<TRIPOS>MOLECULE
ASD05313101
  35   38    0    0    0
SMALL
NO_CHARGES


@<TRIPOS>ATOM
   1 C1            -0.0734     0.8201     1.0173 C.2     
   2 C2             0.1126    -0.6167     0.5920 C.3     
   3 N3             0.9378     1.7375     1.0433 N.pl3   
   4 N4             1.4567    -0.7162    -0.0081 N.am    
   5 C5             2.5714    -0.0370     0.6692 C.3     
   6 C6             2.3237     1.4763     0.6594 C.3     
   7 N7            -0.8983     2.6472     1.6964 N.2     
   8 N8            -1.1542     1.4153     1.4174 N.2     
   9 C9             0.3787     2.8974     1.4848 C.2     
  10 S10            1.6319     6.5921     2.2297 S.3     
  11 C11            2.8504     5.5313     1.6722 C.2     
  12 N12            2.3647     4.3591     1.4553 N.2     
  13 C13            1.0703     4.1876     1.6901 C.2     
  14 C14            0.4407     5.2978     2.1329 C.2     
  15 C15            1.6574    -1.4108    -1.1455 C.2     
  16 O16            2.7496    -1.4005    -1.6792 O.2     
  17 C17            0.5504    -2.1846    -1.7435 C.ar    
  18 C18            0.3188    -2.1287    -3.1207 C.ar    
  19 C19           -0.7176    -2.8545    -3.6728 C.ar    
  20 C20           -1.5261    -3.6360    -2.8649 C.ar    
  21 C21           -1.3010    -3.6950    -1.4992 C.ar    
  22 C22           -0.2656    -2.9795    -0.9361 C.ar    
  23 Cl23          -2.8279    -4.5455    -3.5662 Cl      
  24 Cl24           1.3316    -1.1487    -4.1344 Cl      
  25 H25            0.0426    -1.2735     1.4590 H       
  26 H26           -0.6445    -0.8880    -0.1438 H       
  27 H27            2.6397    -0.3878     1.6989 H       
  28 H28            3.5026    -0.2566     0.1469 H       
  29 H29            2.5046     1.8684    -0.3414 H       
  30 H30            2.9955     1.9602     1.3683 H       
  31 H31            3.8840     5.8062     1.5223 H       
  32 H32           -0.6067     5.3775     2.3836 H       
  33 H33           -0.8984    -2.8123    -4.7367 H       
  34 H34           -1.9353    -4.3066    -0.8747 H       
  35 H35           -0.0886    -3.0306     0.1281 H       
@<TRIPOS>BOND
   1    1    2 1
   2    1    3 1
   3    1    8 2
   4    2    4 1
   5    2   25 1
   6    2   26 1
   7    3    6 1
   8    3    9 1
   9    4    5 1
  10    4   15 am
  11    5    6 1
  12    5   27 1
  13    5   28 1
  14    6   29 1
  15    6   30 1
  16    7    8 1
  17    7    9 2
  18    9   13 1
  19   10   11 1
  20   10   14 1
  21   11   12 2
  22   11   31 1
  23   12   13 1
  24   13   14 2
  25   14   32 1
  26   15   16 2
  27   15   17 1
  28   17   18 ar
  29   17   22 ar
  30   18   19 ar
  31   18   24 1
  32   19   20 ar
  33   19   33 1
  34   20   21 ar
  35   20   23 1
  36   21   22 ar
  37   21   34 1
  38   22   35 1

#	End of record

