#	Name: ASD01000031
#	Creating user name:	WinNT
#	Creation time:	15. 06. 2019 18:54

#	Modifying user name:	WinNT
#	Modification time:	15. 06. 2019 18:54

#	Program:	/corina/corina34_cracker 3.40 0067  02.08.2006

@<TRIPOS>MOLECULE
ASD01000031
  48   49    0    0    0
SMALL
NO_CHARGES


@<TRIPOS>ATOM
   1 C1             0.2945     1.1949     0.1774 C.ar    
   2 C2             0.2178    -0.1897     0.2082 C.ar    
   3 C3            -0.9807    -0.8205    -0.0644 C.ar    
   4 C4            -2.1037    -0.0723    -0.3685 C.ar    
   5 C5            -2.0293     1.3090    -0.4002 C.ar    
   6 C6            -0.8345     1.9438    -0.1222 C.ar    
   7 C7            -1.0646    -2.3248    -0.0311 C.3     
   8 N8             0.2222    -2.8619    -0.5047 N.am    
   9 C9            -1.5111    -2.7371     1.3570 C.2     
  10 C10           -0.7033    -3.5626     2.0578 C.2     
  11 N11            0.4743    -4.0091     1.5324 N.am    
  12 C12            0.9170    -3.6771     0.3132 C.2     
  13 C13           -2.7315    -2.2733     1.9004 C.2     
  14 O14           -3.8281    -3.0590     1.8643 O.3     
  15 S15            2.4143    -4.3094    -0.2246 S.2     
  16 O16           -2.7928    -1.1657     2.4006 O.2     
  17 O17            1.4725     1.8175     0.4457 O.3     
  18 Br18          -3.7427    -0.9384    -0.7418 Br      
  19 C19           -5.0428    -2.5011     2.3694 C.3     
  20 C20           -6.1909    -3.4858     2.1388 C.3     
  21 C21           -1.1091    -3.9971     3.4426 C.3     
  22 C22            1.4235    -8.7424     2.5996 C.3     
  23 C23            1.7937    -7.2886     2.9001 C.3     
  24 C24            0.9306    -6.3560     2.0479 C.3     
  25 C25            1.3007    -4.9021     2.3484 C.3     
  26 H26            1.0946    -0.7742     0.4449 H       
  27 H27           -2.9071     1.8914    -0.6385 H       
  28 H28           -0.7769     3.0220    -0.1467 H       
  29 H29           -1.8368    -2.6311    -0.7368 H       
  30 H30            0.5615    -2.6345    -1.3846 H       
  31 H31            2.0249     1.9668    -0.3337 H       
  32 H32           -4.9380    -2.3089     3.4372 H       
  33 H33           -5.2563    -1.5662     1.8512 H       
  34 H34           -6.2403    -3.7451     1.0812 H       
  35 H35           -6.0196    -4.3877     2.7264 H       
  36 H36           -7.1308    -3.0261     2.4444 H       
  37 H37           -2.0494    -3.5167     3.7132 H       
  38 H38           -1.2356    -5.0796     3.4614 H       
  39 H39           -0.3359    -3.7092     4.1549 H       
  40 H40            0.3716    -8.9054     2.8343 H       
  41 H41            1.5968    -8.9507     1.5438 H       
  42 H42            2.0384    -9.4068     3.2067 H       
  43 H43            1.6204    -7.0803     3.9559 H       
  44 H44            2.8456    -7.1255     2.6654 H       
  45 H45            1.1038    -6.5642     0.9921 H       
  46 H46           -0.1213    -6.5190     2.2826 H       
  47 H47            2.3526    -4.7391     2.1137 H       
  48 H48            1.1275    -4.6938     3.4042 H       
@<TRIPOS>BOND
   1    1    2 ar
   2    1   17 1
   3    1    6 ar
   4    2    3 ar
   5    2   26 1
   6    3    4 ar
   7    3    7 1
   8    4    5 ar
   9    4   18 1
  10    5    6 ar
  11    5   27 1
  12    6   28 1
  13    7    8 1
  14    7    9 1
  15    7   29 1
  16    8   12 am
  17    8   30 1
  18    9   10 2
  19    9   13 1
  20   10   21 1
  21   10   11 1
  22   11   25 1
  23   11   12 am
  24   12   15 2
  25   13   14 1
  26   13   16 2
  27   14   19 1
  28   17   31 1
  29   19   20 1
  30   19   32 1
  31   19   33 1
  32   20   34 1
  33   20   35 1
  34   20   36 1
  35   21   37 1
  36   21   38 1
  37   21   39 1
  38   22   23 1
  39   22   40 1
  40   22   41 1
  41   22   42 1
  42   23   24 1
  43   23   43 1
  44   23   44 1
  45   24   25 1
  46   24   45 1
  47   24   46 1
  48   25   47 1
  49   25   48 1

#	End of record

