#	Name: ASD03110004
#	Creating user name:	WinNT
#	Creation time:	15. 06. 2019 20:33

#	Modifying user name:	WinNT
#	Modification time:	15. 06. 2019 20:33

#	Program:	/corina/corina34_cracker 3.40 0067  02.08.2006

@<TRIPOS>MOLECULE
ASD03110004
  40   43    0    0    0
SMALL
NO_CHARGES


@<TRIPOS>ATOM
   1 C1            -0.0167     1.3837     0.0096 C.ar    
   2 C2             0.0021    -0.0041     0.0020 C.ar    
   3 C3             1.2033    -0.6765    -0.0131 C.ar    
   4 C4             2.4013     0.0355    -0.0203 C.ar    
   5 C5             2.3914     1.4362    -0.0127 C.ar    
   6 C6             1.1424     2.0967     0.0024 C.ar    
   7 S7             4.0773    -0.5072    -0.0392 S.3     
   8 C8             4.6286     1.1626    -0.0355 C.2     
   9 N9             3.6194     1.9666    -0.0216 N.2     
  10 C10            6.0454     1.5848    -0.0463 C.ar    
  11 C11            6.3691     2.9434    -0.0422 C.ar    
  12 C12            7.0599     0.6249    -0.0549 C.ar    
  13 C13            8.3792     1.0177    -0.0641 C.ar    
  14 C14            8.7033     2.3768    -0.0653 C.ar    
  15 C15            7.6882     3.3368    -0.0518 C.ar    
  16 C16           10.1190     2.7986    -0.0746 C.2     
  17 O17           11.0024     1.9630    -0.0812 O.2     
  18 N18           10.4315     4.1097    -0.0758 N.am    
  19 N19           11.7741     4.5097    -0.0846 N.2     
  20 C20           12.0751     5.7723    -0.0858 C.2     
  21 C21           13.4883     6.1934    -0.0951 C.ar    
  22 C22           14.5125     5.2438    -0.1027 C.ar    
  23 C23           13.8268     7.5531    -0.1022 C.ar    
  24 C24           15.1672     7.8948    -0.1108 C.ar    
  25 C25           16.1217     6.8931    -0.1120 C.ar    
  26 N26           15.7743     5.6205    -0.1110 N.ar    
  27 H27           -0.9630     1.9042     0.0169 H       
  28 H28           -0.9259    -0.5566     0.0083 H       
  29 H29            1.2173    -1.7564    -0.0190 H       
  30 H30            1.1074     3.1761     0.0085 H       
  31 H31            5.5844     3.6854    -0.0318 H       
  32 H32            6.8093    -0.4256    -0.0539 H       
  33 H33            9.1636     0.2754    -0.0699 H       
  34 H34            7.9384     4.3874    -0.0528 H       
  35 H35            9.7268     4.7762    -0.0705 H       
  36 H36           11.2905     6.5144    -0.0799 H       
  37 H37           14.2676     4.1920    -0.1015 H       
  38 H38           13.0610     8.3146    -0.1014 H       
  39 H39           15.4655     8.9327    -0.1168 H       
  40 H40           17.1688     7.1576    -0.1187 H       
@<TRIPOS>BOND
   1    1    2 ar
   2    1    6 ar
   3    1   27 1
   4    2    3 ar
   5    2   28 1
   6    3    4 ar
   7    3   29 1
   8    4    5 ar
   9    4    7 1
  10    5    6 ar
  11    5    9 1
  12    6   30 1
  13    7    8 1
  14    8    9 2
  15    8   10 1
  16   10   11 ar
  17   10   12 ar
  18   11   15 ar
  19   11   31 1
  20   12   13 ar
  21   12   32 1
  22   13   14 ar
  23   13   33 1
  24   14   15 ar
  25   14   16 1
  26   15   34 1
  27   16   17 2
  28   16   18 am
  29   18   19 1
  30   18   35 1
  31   19   20 2
  32   20   21 1
  33   20   36 1
  34   21   22 ar
  35   21   23 ar
  36   22   26 ar
  37   22   37 1
  38   23   24 ar
  39   23   38 1
  40   24   25 ar
  41   24   39 1
  42   25   26 ar
  43   25   40 1

#	End of record

