#	Name: ASD01200240
#	Creating user name:	WinNT
#	Creation time:	15. 06. 2019 19:08

#	Modifying user name:	WinNT
#	Modification time:	15. 06. 2019 19:08

#	Program:	/corina/corina34_cracker 3.40 0067  02.08.2006

@<TRIPOS>MOLECULE
ASD01200240
  53   55    0    0    0
SMALL
NO_CHARGES


@<TRIPOS>ATOM
   1 C1            -0.0184     1.5028     0.0103 C.2     
   2 C2             0.0021    -0.0041     0.0020 C.3     
   3 O3             1.0197     2.1211     0.0037 O.2     
   4 O4            -1.1898     2.1580     0.0194 O.3     
   5 S5             3.6083    -1.6339     0.5144 S.3     
   6 C6             3.4995    -0.5913    -0.8362 C.2     
   7 N7             2.3008    -0.1070    -0.9299 N.2     
   8 C8             1.4295    -0.4870    -0.0142 C.2     
   9 C9             1.9152    -1.3327     0.8967 C.2     
  10 C10            5.7548    -0.8652    -1.5147 C.2     
  11 C11            6.8878    -0.5539    -2.4584 C.3     
  12 C12            7.1700     0.9497    -2.4381 C.3     
  13 O13            5.9322    -1.6206    -0.5826 O.2     
  14 N14            4.5445    -0.3042    -1.7066 N.am    
  15 C15            8.1221    -1.3025    -2.0257 C.ar    
  16 C16            8.7150    -2.2110    -2.8827 C.ar    
  17 C17            9.8480    -2.8979    -2.4861 C.ar    
  18 C18           10.3879    -2.6751    -1.2304 C.ar    
  19 C19            9.7934    -1.7660    -0.3744 C.ar    
  20 C20            8.6639    -1.0763    -0.7744 C.ar    
  21 Cl21          11.8097    -3.5369    -0.7310 Cl      
  22 Cl22          10.5927    -4.0391    -3.5617 Cl      
  23 C23            8.2338     1.2832    -3.4859 C.3     
  24 C24            8.4376     2.8064    -3.5639 C.3     
  25 C25            9.9116     3.0732    -3.1950 C.3     
  26 C26           10.6302     1.7383    -3.5125 C.3     
  27 C27            9.5910     0.6775    -3.0724 C.3     
  28 C28           -1.1335     3.6089     0.0270 C.3     
  29 C29           -2.5551     4.1744     0.0369 C.3     
  30 H30           -0.4983    -0.3791     0.8948 H       
  31 H31           -0.5153    -0.3696    -0.8850 H       
  32 H32            1.3661    -1.7584     1.7235 H       
  33 H33            6.6135    -0.8585    -3.4684 H       
  34 H34            6.2535     1.4944    -2.6647 H       
  35 H35            7.5296     1.2386    -1.4505 H       
  36 H36            4.4027     0.3000    -2.4521 H       
  37 H37            8.2933    -2.3845    -3.8617 H       
  38 H38           10.2139    -1.5918     0.6050 H       
  39 H39            8.2023    -0.3634    -0.1072 H       
  40 H40            7.9327     0.8964    -4.4595 H       
  41 H41            8.2363     3.1587    -4.5755 H       
  42 H42            7.7787     3.3080    -2.8552 H       
  43 H43           10.3177     3.8797    -3.8055 H       
  44 H44           10.0023     3.3126    -2.1355 H       
  45 H45           10.8383     1.6559    -4.5793 H       
  46 H46           11.5473     1.6454    -2.9306 H       
  47 H47            9.6300     0.5301    -1.9931 H       
  48 H48            9.7631    -0.2643    -3.5934 H       
  49 H49           -0.6017     3.9472     0.9164 H       
  50 H50           -0.6102     3.9569    -0.8636 H       
  51 H51           -2.5128     5.2636     0.0426 H       
  52 H52           -3.0869     3.8361    -0.8525 H       
  53 H53           -3.0784     3.8265     0.9275 H       
@<TRIPOS>BOND
   1    1    2 1
   2    1    3 2
   3    1    4 1
   4    2    8 1
   5    2   30 1
   6    2   31 1
   7    4   28 1
   8    5    6 1
   9    5    9 1
  10    6    7 2
  11    6   14 1
  12    7    8 1
  13    8    9 2
  14    9   32 1
  15   10   11 1
  16   10   13 2
  17   10   14 am
  18   11   12 1
  19   11   15 1
  20   11   33 1
  21   12   23 1
  22   12   34 1
  23   12   35 1
  24   14   36 1
  25   15   16 ar
  26   15   20 ar
  27   16   17 ar
  28   16   37 1
  29   17   18 ar
  30   17   22 1
  31   18   19 ar
  32   18   21 1
  33   19   20 ar
  34   19   38 1
  35   20   39 1
  36   23   24 1
  37   23   27 1
  38   23   40 1
  39   24   25 1
  40   24   41 1
  41   24   42 1
  42   25   26 1
  43   25   43 1
  44   25   44 1
  45   26   27 1
  46   26   45 1
  47   26   46 1
  48   27   47 1
  49   27   48 1
  50   28   29 1
  51   28   49 1
  52   28   50 1
  53   29   51 1
  54   29   52 1
  55   29   53 1

#	End of record

