#	Name: ASD01810623
#	Creating user name:	WinNT
#	Creation time:	15. 06. 2019 19:25

#	Modifying user name:	WinNT
#	Modification time:	15. 06. 2019 19:25

#	Program:	/corina/corina34_cracker 3.40 0067  02.08.2006

@<TRIPOS>MOLECULE
ASD01810623
  63   66    0    0    0
SMALL
NO_CHARGES


@<TRIPOS>ATOM
   1 N1            -0.0183     1.3810    -0.4589 N.am    
   2 C2             0.1689     0.3059    -1.2499 C.2     
   3 O3             1.2610     0.0954    -1.7412 O.2     
   4 N4            -0.8545    -0.5358    -1.4963 N.am    
   5 O5            -0.7874    -4.0785    -2.0148 O.3     
   6 C6            -0.1223    -2.9026    -1.5387 C.3     
   7 C7            -0.6510    -1.7044    -2.3561 C.3     
   8 C8            -2.0073    -2.2415    -2.8888 C.3     
   9 C9            -1.6692    -3.7393    -3.0968 C.3     
  10 C10            1.0670     2.1967    -0.1182 C.ar    
  11 C11            0.8782     3.5602     0.0736 C.ar    
  12 C12            1.9466     4.3701     0.4097 C.ar    
  13 C13            3.2082     3.8302     0.5570 C.ar    
  14 C14            3.4082     2.4619     0.3670 C.ar    
  15 C15            2.3287     1.6438     0.0333 C.ar    
  16 C16           -0.4961     4.1578    -0.0858 C.3     
  17 C17           -1.2701     4.0139     1.2261 C.3     
  18 C18            4.7588     1.8809     0.5237 C.2     
  19 O19            4.9098     0.8575     1.1620 O.2     
  20 N20            5.8224     2.4859    -0.0412 N.am    
  21 C21            7.1550     1.8703     0.0224 C.3     
  22 C22            7.7171     1.7635    -1.3987 C.3     
  23 C23            7.6936     3.1447    -2.0574 C.3     
  24 C24            6.2501     3.6453    -2.1453 C.3     
  25 C25            5.6703     3.7707    -0.7376 C.3     
  26 F26            8.4512     4.0385    -1.2930 F       
  27 C27            8.2774     3.0499    -3.4435 C.ar    
  28 C28            8.6490     4.2015    -4.1144 C.ar    
  29 C29            9.1840     4.1220    -5.3834 C.ar    
  30 C30            9.3507     2.8756    -5.9905 C.ar    
  31 C31            8.9739     1.7175    -5.3074 C.ar    
  32 C32            8.4446     1.8112    -4.0370 C.ar    
  33 C33            9.9050     2.7855    -7.3078 C.1     
  34 N34           10.3447     2.7141    -8.3528 N.1     
  35 H35           -0.9058     1.5917    -0.1290 H       
  36 H36           -1.7257    -0.3678    -1.1044 H       
  37 H37           -0.3432    -2.7552    -0.4815 H       
  38 H38            0.9535    -3.0024    -1.6824 H       
  39 H39            0.0251    -1.4666    -3.1774 H       
  40 H40           -2.7975    -2.1163    -2.1486 H       
  41 H41           -2.2756    -1.7648    -3.8316 H       
  42 H42           -1.1676    -3.8846    -4.0535 H       
  43 H43           -2.5761    -4.3421    -3.0488 H       
  44 H44            1.7937     5.4290     0.5572 H       
  45 H45            4.0407     4.4664     0.8190 H       
  46 H46            2.4766     0.5837    -0.1107 H       
  47 H47           -0.4058     5.2138    -0.3405 H       
  48 H48           -1.0289     3.6365    -0.8810 H       
  49 H49           -2.2641     4.4461     1.1108 H       
  50 H50           -1.3604     2.9580     1.4808 H       
  51 H51           -0.7372     4.5352     2.0214 H       
  52 H52            7.8147     2.4890     0.6307 H       
  53 H53            7.0772     0.8751     0.4603 H       
  54 H54            8.7429     1.3974    -1.3576 H       
  55 H55            7.1068     1.0726    -1.9804 H       
  56 H56            6.2318     4.6187    -2.6356 H       
  57 H57            5.6536     2.9367    -2.7199 H       
  58 H58            4.6133     4.0291    -0.8009 H       
  59 H59            6.2065     4.5475    -0.1924 H       
  60 H60            8.5195     5.1648    -3.6437 H       
  61 H61            9.4730     5.0217    -5.9063 H       
  62 H62            9.1001     0.7503    -5.7712 H       
  63 H63            8.1566     0.9160    -3.5059 H       
@<TRIPOS>BOND
   1    1    2 am
   2    1   10 1
   3    1   35 1
   4    2    3 2
   5    2    4 am
   6    4    7 1
   7    4   36 1
   8    5    6 1
   9    5    9 1
  10    6    7 1
  11    6   37 1
  12    6   38 1
  13    7    8 1
  14    7   39 1
  15    8    9 1
  16    8   40 1
  17    8   41 1
  18    9   42 1
  19    9   43 1
  20   10   11 ar
  21   10   15 ar
  22   11   12 ar
  23   11   16 1
  24   12   13 ar
  25   12   44 1
  26   13   14 ar
  27   13   45 1
  28   14   15 ar
  29   14   18 1
  30   15   46 1
  31   16   17 1
  32   16   47 1
  33   16   48 1
  34   17   49 1
  35   17   50 1
  36   17   51 1
  37   18   19 2
  38   18   20 am
  39   20   21 1
  40   20   25 1
  41   21   22 1
  42   21   52 1
  43   21   53 1
  44   22   23 1
  45   22   54 1
  46   22   55 1
  47   23   24 1
  48   23   26 1
  49   23   27 1
  50   24   25 1
  51   24   56 1
  52   24   57 1
  53   25   58 1
  54   25   59 1
  55   27   28 ar
  56   27   32 ar
  57   28   29 ar
  58   28   60 1
  59   29   30 ar
  60   29   61 1
  61   30   31 ar
  62   30   33 1
  63   31   32 ar
  64   31   62 1
  65   32   63 1
  66   33   34 3

#	End of record

