#	Name: ASD03430062
#	Creating user name:	WinNT
#	Creation time:	15. 06. 2019 20:40

#	Modifying user name:	WinNT
#	Modification time:	15. 06. 2019 20:40

#	Program:	/corina/corina34_cracker 3.40 0067  02.08.2006

@<TRIPOS>MOLECULE
ASD03430062
  46   51    0    0    0
SMALL
NO_CHARGES


@<TRIPOS>ATOM
   1 C1             0.8904     0.8616    -1.0196 C.ar    
   2 C2             0.8056    -0.4991    -0.7683 C.ar    
   3 C3             1.9260    -1.2053    -0.3845 C.ar    
   4 C4             3.1514    -0.5628    -0.2349 C.ar    
   5 C5             3.2340     0.8018    -0.4929 C.ar    
   6 C6             2.1110     1.5124    -0.8817 C.ar    
   7 O7             4.1184    -1.4322     0.1765 O.3     
   8 C8             2.1618    -2.6577    -0.0677 C.3     
   9 C9             3.6916    -2.7809    -0.0951 C.3     
  10 C10            0.7095    -4.0949     1.0012 C.ar    
  11 C11            1.5917    -3.0518     1.2622 C.ar    
  12 C12            1.5114    -3.5720    -1.0659 C.2     
  13 N13            0.6852    -4.3761    -0.3674 N.am    
  14 O14            1.6934    -3.5843    -2.2649 O.2     
  15 C15            1.7800    -2.5965     2.5594 C.ar    
  16 C16            1.0806    -3.1890     3.6106 C.ar    
  17 C17            0.2058    -4.2251     3.3523 C.ar    
  18 C18            0.0188    -4.6778     2.0617 C.ar    
  19 C19           -0.1416    -5.4232    -0.9725 C.3     
  20 O20           -0.2243     1.5424    -1.4043 O.3     
  21 C21           -0.1785     2.9689    -1.2894 C.3     
  22 C22            1.1571     3.4541    -1.8690 C.3     
  23 O23            2.2171     2.8485    -1.1218 O.3     
  24 C24            2.7234    -1.4825     2.8275 C.2     
  25 N25            2.6790    -0.2849     2.3046 N.2     
  26 O26            3.5928     0.3898     2.7299 O.3     
  27 C27            4.3293    -0.3248     3.5864 C.2     
  28 N28            3.7863    -1.5142     3.6627 N.2     
  29 C29            5.5513     0.1507     4.3293 C.3     
  30 H30           -0.1414    -1.0078    -0.8731 H       
  31 H31            4.1809     1.3106    -0.3888 H       
  32 H32            4.0362    -3.1056    -1.0769 H       
  33 H33            4.0392    -3.4609     0.6827 H       
  34 H34            1.2225    -2.8384     4.6222 H       
  35 H35           -0.3358    -4.6850     4.1657 H       
  36 H36           -0.6683    -5.4892     1.8725 H       
  37 H37           -1.1107    -5.0072    -1.2479 H       
  38 H38            0.3547    -5.8086    -1.8632 H       
  39 H39           -0.2839    -6.2329    -0.2567 H       
  40 H40           -1.0038     3.4095    -1.8486 H       
  41 H41           -0.2500     3.2557    -0.2402 H       
  42 H42            1.2320     3.1602    -2.9159 H       
  43 H43            1.2215     4.5390    -1.7857 H       
  44 H44            5.7569     1.1878     4.0642 H       
  45 H45            5.3752     0.0780     5.4025 H       
  46 H46            6.4055    -0.4698     4.0584 H       
@<TRIPOS>BOND
   1    1    2 ar
   2    1    6 ar
   3    1   20 1
   4    2    3 ar
   5    2   30 1
   6    3    4 ar
   7    3    8 1
   8    4    5 ar
   9    4    7 1
  10    5    6 ar
  11    5   31 1
  12    6   23 1
  13    7    9 1
  14    8    9 1
  15    8   11 1
  16    8   12 1
  17    9   32 1
  18    9   33 1
  19   10   11 ar
  20   10   13 1
  21   10   18 ar
  22   11   15 ar
  23   12   13 am
  24   12   14 2
  25   13   19 1
  26   15   16 ar
  27   15   24 1
  28   16   17 ar
  29   16   34 1
  30   17   18 ar
  31   17   35 1
  32   18   36 1
  33   19   37 1
  34   19   38 1
  35   19   39 1
  36   20   21 1
  37   21   22 1
  38   21   40 1
  39   21   41 1
  40   22   23 1
  41   22   42 1
  42   22   43 1
  43   24   25 2
  44   24   28 1
  45   25   26 1
  46   26   27 1
  47   27   28 2
  48   27   29 1
  49   29   44 1
  50   29   45 1
  51   29   46 1

#	End of record

