#	Name: ASD01411206
#	Creating user name:	WinNT
#	Creation time:	15. 06. 2019 19:19

#	Modifying user name:	WinNT
#	Modification time:	15. 06. 2019 19:19

#	Program:	/corina/corina34_cracker 3.40 0067  02.08.2006

@<TRIPOS>MOLECULE
ASD01411206
  68   71    0    0    0
SMALL
NO_CHARGES


@<TRIPOS>ATOM
   1 C1            -0.7001     1.1419    -1.7025 C.ar    
   2 C2            -0.4125    -0.1894    -1.5339 C.ar    
   3 C3             0.8522    -0.6948    -1.8281 C.ar    
   4 C4             1.8360     0.1673    -2.2930 C.ar    
   5 C5             1.5530     1.5085    -2.4625 C.ar    
   6 C6             0.2885     2.0026    -2.1710 C.ar    
   7 P7            -1.6590    -1.3598    -0.9150 P.3     
   8 N8            -0.8584    -2.7435    -0.5168 N.2     
   9 C9             0.3669    -2.9147    -0.9087 C.2     
  10 N10            1.1086    -2.0540    -1.6584 N.pl3   
  11 C11            1.0233    -4.1706    -0.4993 C.2     
  12 C12            0.4493    -5.1523     0.2493 C.2     
  13 C13            1.4921    -6.2340     0.4138 C.3     
  14 N14            2.6811    -5.7620    -0.3060 N.am    
  15 C15            2.3937    -4.5611    -0.8392 C.2     
  16 O16           -2.3280    -0.8007     0.2809 O.2     
  17 O17           -2.7457    -1.6642    -2.0633 O.3     
  18 O18           -0.8001    -5.1582     0.7455 O.3     
  19 O19            3.1626    -3.8934    -1.5049 O.2     
  20 C20           -3.5590    -0.6485    -2.6540 C.3     
  21 C21           -4.4771    -1.2770    -3.7043 C.3     
  22 C22            1.8171    -6.4318     1.8958 C.3     
  23 C23            0.5228    -6.6800     2.6730 C.3     
  24 C24            2.7479    -7.6352     2.0575 C.3     
  25 C25            2.5056    -5.1779     2.4386 C.3     
  26 N26            0.0086     3.3621    -2.3482 N.am    
  27 S27           -0.0771     4.3678    -1.0353 S.o2    
  28 O28           -0.2794     5.6582    -1.5949 O.2     
  29 O29           -1.0583     3.7699    -0.1993 O.2     
  30 C30            1.5642     4.2555    -0.2712 C.3     
  31 C31            3.9545    -6.4761    -0.4275 C.3     
  32 C32            3.9006    -7.4004    -1.6166 C.ar    
  33 C33            4.2998    -6.9491    -2.8608 C.ar    
  34 C34            4.2512    -7.7960    -3.9518 C.ar    
  35 C35            3.8026    -9.0969    -3.7984 C.ar    
  36 C36            3.4031    -9.5477    -2.5517 C.ar    
  37 C37            3.4575    -8.7006    -1.4611 C.ar    
  38 F38            3.7543    -9.9255    -4.8643 F       
  39 H39           -1.6872     1.5180    -1.4778 H       
  40 H40            2.8217    -0.2103    -2.5215 H       
  41 H41            2.3201     2.1772    -2.8242 H       
  42 H42            1.8830    -2.4187    -2.1147 H       
  43 H43            1.1361    -7.1680    -0.0210 H       
  44 H44           -1.3524    -4.3881     0.5533 H       
  45 H45           -4.1631    -0.1720    -1.8819 H       
  46 H46           -2.9214     0.0973    -3.1285 H       
  47 H47           -5.1148    -2.0229    -3.2298 H       
  48 H48           -5.0975    -0.5023    -4.1549 H       
  49 H49           -3.8731    -1.7536    -4.4764 H       
  50 H50            0.0323    -7.5732     2.2863 H       
  51 H51            0.7544    -6.8209     3.7288 H       
  52 H52           -0.1403    -5.8226     2.5578 H       
  53 H53            3.7797    -7.3201     1.9019 H       
  54 H54            2.6407    -8.0450     3.0619 H       
  55 H55            2.4864    -8.3980     1.3241 H       
  56 H56            1.8425    -4.3205     2.3234 H       
  57 H57            2.7371    -5.3188     3.4944 H       
  58 H58            3.4277    -5.0011     1.8849 H       
  59 H59           -0.1353     3.7155    -3.2400 H       
  60 H60            2.3271     4.4951    -1.0120 H       
  61 H61            1.6283     4.9607     0.5575 H       
  62 H62            1.7237     3.2431     0.1001 H       
  63 H63            4.7627    -5.7572    -0.5625 H       
  64 H64            4.1327    -7.0576     0.4770 H       
  65 H65            4.6493    -5.9343    -2.9804 H       
  66 H66            4.5627    -7.4432    -4.9239 H       
  67 H67            3.0530   -10.5622    -2.4308 H       
  68 H68            3.1498    -9.0533    -0.4878 H       
@<TRIPOS>BOND
   1    1    2 ar
   2    1    6 ar
   3    1   39 1
   4    2    3 ar
   5    2    7 1
   6    3    4 ar
   7    3   10 1
   8    4    5 ar
   9    4   40 1
  10    5    6 ar
  11    5   41 1
  12    6   26 1
  13    7    8 1
  14    7   16 2
  15    7   17 1
  16    8    9 2
  17    9   10 1
  18    9   11 1
  19   10   42 1
  20   11   12 2
  21   11   15 1
  22   12   13 1
  23   12   18 1
  24   13   14 1
  25   13   22 1
  26   13   43 1
  27   14   15 am
  28   14   31 1
  29   15   19 2
  30   17   20 1
  31   18   44 1
  32   20   21 1
  33   20   45 1
  34   20   46 1
  35   21   47 1
  36   21   48 1
  37   21   49 1
  38   22   23 1
  39   22   24 1
  40   22   25 1
  41   23   50 1
  42   23   51 1
  43   23   52 1
  44   24   53 1
  45   24   54 1
  46   24   55 1
  47   25   56 1
  48   25   57 1
  49   25   58 1
  50   26   27 am
  51   26   59 1
  52   27   28 2
  53   27   29 2
  54   27   30 1
  55   30   60 1
  56   30   61 1
  57   30   62 1
  58   31   32 1
  59   31   63 1
  60   31   64 1
  61   32   33 ar
  62   32   37 ar
  63   33   34 ar
  64   33   65 1
  65   34   35 ar
  66   34   66 1
  67   35   36 ar
  68   35   38 1
  69   36   37 ar
  70   36   67 1
  71   37   68 1

#	End of record

