#	Name: ASD01208532
#	Creating user name:	WinNT
#	Creation time:	15. 06. 2019 19:10

#	Modifying user name:	WinNT
#	Modification time:	15. 06. 2019 19:10

#	Program:	/corina/corina34_cracker 3.40 0067  02.08.2006

@<TRIPOS>MOLECULE
ASD01208532
  63   67    0    0    0
SMALL
NO_CHARGES


@<TRIPOS>ATOM
   1 C1            -1.3381     2.1934    -2.5609 C.ar    
   2 C2            -1.2052     0.9267    -3.1248 C.ar    
   3 C3            -1.6575     0.7104    -4.4110 C.ar    
   4 C4            -2.2371     1.7845    -5.1027 C.ar    
   5 C5            -2.3346     3.0238    -4.4693 C.ar    
   6 N6            -1.8901     3.1865    -3.2407 N.ar    
   7 O7            -0.9013     2.4110    -1.2966 O.3     
   8 C8            -0.9714     3.6765    -0.8063 C.ar    
   9 C9             0.1841     4.4346    -0.6771 C.ar    
  10 C10            0.1184     5.7268    -0.1767 C.ar    
  11 C11           -1.1018     6.2663     0.1957 C.ar    
  12 C12           -2.2662     5.5079     0.0670 C.ar    
  13 C13           -2.1962     4.2100    -0.4417 C.ar    
  14 N14           -4.7802     5.4421     0.3867 N.pl3   
  15 C15           -3.5701     6.0793     0.4631 C.2     
  16 C16           -3.7729     7.3318     0.9679 C.2     
  17 C17           -5.1409     7.4769     1.2112 C.2     
  18 C18           -5.7528     6.2972     0.8461 C.2     
  19 O19           -8.1518     6.8395     1.3816 O.3     
  20 C20           -7.1909     6.0057     0.9319 C.2     
  21 N21           -7.7824     4.8830     0.5844 N.2     
  22 N22           -9.0471     4.9872     0.7970 N.2     
  23 C23           -9.3127     6.1670     1.2836 C.2     
  24 C24          -10.6751     6.6842     1.6678 C.3     
  25 O25            1.2529     6.4644    -0.0514 O.3     
  26 C26            2.4892     5.8062    -0.3350 C.3     
  27 C27            3.6222     6.5003     0.4236 C.3     
  28 C28            2.7679     5.8701    -1.8381 C.3     
  29 O29            3.7807     7.8317    -0.0705 O.3     
  30 C30            4.8194     8.5713     0.5747 C.3     
  31 Cl31          -0.4787    -0.3649    -2.2207 Cl      
  32 C32           -2.7362     1.6062    -6.4805 C.2     
  33 O33           -3.1223     2.5679    -7.1164 O.2     
  34 N34           -2.7638     0.3774    -7.0335 N.am    
  35 C35           -3.1640    -0.1920    -8.3290 C.3     
  36 C36           -3.4524    -1.5110    -7.5989 C.3     
  37 C37           -2.4008    -0.9831    -6.6092 C.3     
  38 H38           -1.5670    -0.2614    -4.8733 H       
  39 H39           -2.7786     3.8580    -4.9921 H       
  40 H40            1.1372     4.0171    -0.9665 H       
  41 H41           -1.1520     7.2722     0.5855 H       
  42 H42           -3.0954     3.6211    -0.5467 H       
  43 H43           -4.9264     4.5407     0.0597 H       
  44 H44           -3.0119     8.0769     1.1471 H       
  45 H45           -5.6293     8.3527     1.6123 H       
  46 H46          -11.1339     7.1727     0.8082 H       
  47 H47          -11.3016     5.8527     1.9905 H       
  48 H48          -10.5750     7.4013     2.4826 H       
  49 H49            2.4266     4.7643    -0.0210 H       
  50 H50            3.3812     6.5333     1.4861 H       
  51 H51            4.5496     5.9461     0.2785 H       
  52 H52            3.7109     5.3681    -2.0544 H       
  53 H53            1.9607     5.3756    -2.3785 H       
  54 H54            2.8305     6.9120    -2.1521 H       
  55 H55            4.6032     8.6473     1.6404 H       
  56 H56            5.7715     8.0601     0.4327 H       
  57 H57            4.8757     9.5707     0.1432 H       
  58 H58           -4.0543     0.2739    -8.7515 H       
  59 H59           -2.3445    -0.2620    -9.0442 H       
  60 H60           -4.4598    -1.5840    -7.1889 H       
  61 H61           -3.1416    -2.4015    -8.1452 H       
  62 H62           -1.3800    -1.2616    -6.8710 H       
  63 H63           -2.6407    -1.1912    -5.5665 H       
@<TRIPOS>BOND
   1    1    2 ar
   2    1    6 ar
   3    1    7 1
   4    2    3 ar
   5    2   31 1
   6    3    4 ar
   7    3   38 1
   8    4    5 ar
   9    4   32 1
  10    5    6 ar
  11    5   39 1
  12    7    8 1
  13    8    9 ar
  14    8   13 ar
  15    9   10 ar
  16    9   40 1
  17   10   11 ar
  18   10   25 1
  19   11   12 ar
  20   11   41 1
  21   12   13 ar
  22   12   15 1
  23   13   42 1
  24   14   15 1
  25   14   18 1
  26   14   43 1
  27   15   16 2
  28   16   17 1
  29   16   44 1
  30   17   18 2
  31   17   45 1
  32   18   20 1
  33   19   20 1
  34   19   23 1
  35   20   21 2
  36   21   22 1
  37   22   23 2
  38   23   24 1
  39   24   46 1
  40   24   47 1
  41   24   48 1
  42   25   26 1
  43   26   27 1
  44   26   28 1
  45   26   49 1
  46   27   29 1
  47   27   50 1
  48   27   51 1
  49   28   52 1
  50   28   53 1
  51   28   54 1
  52   29   30 1
  53   30   55 1
  54   30   56 1
  55   30   57 1
  56   32   33 2
  57   32   34 am
  58   34   35 1
  59   34   37 1
  60   35   36 1
  61   35   58 1
  62   35   59 1
  63   36   37 1
  64   36   60 1
  65   36   61 1
  66   37   62 1
  67   37   63 1

#	End of record

