#	Name: ASD01912010
#	Creating user name:	WinNT
#	Creation time:	15. 06. 2019 19:58

#	Modifying user name:	WinNT
#	Modification time:	15. 06. 2019 19:58

#	Program:	/corina/corina34_cracker 3.40 0067  02.08.2006

@<TRIPOS>MOLECULE
ASD01912010
  39   42    0    0    0
SMALL
NO_CHARGES


@<TRIPOS>ATOM
   1 C1            -0.0168     1.3850     0.0097 C.ar    
   2 C2             0.0021    -0.0041     0.0020 C.ar    
   3 C3             1.2126    -0.6855    -0.0132 C.ar    
   4 C4             2.3993     0.0147    -0.0209 C.ar    
   5 C5             2.3842     1.4104    -0.0132 C.ar    
   6 C6             1.1661     2.0918     0.0022 C.ar    
   7 C7             3.6565     2.1659    -0.0209 C.ar    
   8 N8             4.7234     1.7021     0.6233 N.ar    
   9 C9             5.8632     2.3751     0.6181 C.ar    
  10 N10            5.9967     3.5304    -0.0207 N.ar    
  11 C11            4.9887     4.0638    -0.6857 C.ar    
  12 C12            3.7620     3.3902    -0.7174 C.ar    
  13 C13            2.6424     3.9325    -1.4266 C.1     
  14 N14            1.7542     4.3628    -1.9892 N.1     
  15 N15            6.9501     1.8576     1.3010 N.pl3   
  16 C16            8.1486     2.5412     1.3098 C.2     
  17 O17            9.2644     2.1318     1.9386 O.3     
  18 C18           10.2314     3.0535     1.7255 C.ar    
  19 C19            9.6546     4.0557     0.9310 C.ar    
  20 N20            8.3666     3.6792     0.7031 N.2     
  21 C21           11.5556     3.1623     2.1181 C.ar    
  22 C22           12.3017     4.2554     1.7265 C.ar    
  23 C23           11.7355     5.2483     0.9417 C.ar    
  24 C24           10.4203     5.1559     0.5424 C.ar    
  25 O25           -1.1655    -0.6974     0.0099 O.3     
  26 C26           -1.0733    -2.1234     0.0014 C.3     
  27 H27           -0.9597     1.9116     0.0170 H       
  28 H28            1.2235    -1.7655    -0.0188 H       
  29 H29            3.3400    -0.5157    -0.0324 H       
  30 H30            1.1507     3.1717     0.0081 H       
  31 H31            5.1099     5.0050    -1.2013 H       
  32 H32            6.8693     1.0143     1.7734 H       
  33 H33           12.0032     2.3931     2.7300 H       
  34 H34           13.3338     4.3380     2.0337 H       
  35 H35           12.3289     6.0994     0.6420 H       
  36 H36            9.9835     5.9318    -0.0689 H       
  37 H37           -0.5460    -2.4480    -0.8957 H       
  38 H38           -0.5283    -2.4575     0.8842 H       
  39 H39           -2.0753    -2.5523     0.0091 H       
@<TRIPOS>BOND
   1    1    2 ar
   2    1    6 ar
   3    1   27 1
   4    2    3 ar
   5    2   25 1
   6    3    4 ar
   7    3   28 1
   8    4    5 ar
   9    4   29 1
  10    5    6 ar
  11    5    7 1
  12    6   30 1
  13    7    8 ar
  14    7   12 ar
  15    8    9 ar
  16    9   10 ar
  17    9   15 1
  18   10   11 ar
  19   11   12 ar
  20   11   31 1
  21   12   13 1
  22   13   14 3
  23   15   16 1
  24   15   32 1
  25   16   17 1
  26   16   20 2
  27   17   18 1
  28   18   19 ar
  29   18   21 ar
  30   19   20 1
  31   19   24 ar
  32   21   22 ar
  33   21   33 1
  34   22   23 ar
  35   22   34 1
  36   23   24 ar
  37   23   35 1
  38   24   36 1
  39   25   26 1
  40   26   37 1
  41   26   38 1
  42   26   39 1

#	End of record

