#	Name: ASD01810622
#	Creating user name:	WinNT
#	Creation time:	15. 06. 2019 19:25

#	Modifying user name:	WinNT
#	Modification time:	15. 06. 2019 19:25

#	Program:	/corina/corina34_cracker 3.40 0067  02.08.2006

@<TRIPOS>MOLECULE
ASD01810622
  30   32    0    0    0
SMALL
NO_CHARGES


@<TRIPOS>ATOM
   1 N1            -0.0153     1.2793     0.0091 N.2     
   2 N2             0.0021    -0.0041     0.0020 N.am    
   3 C3             1.2726    -0.4531    -0.0125 C.2     
   4 C4             2.1008     0.6918    -0.0143 C.2     
   5 C5             1.2213     1.7733    -0.0001 C.2     
   6 O6             1.6354    -1.6160    -0.0216 O.2     
   7 C7             1.5937     3.2075     0.0036 C.ar    
   8 C8             0.6005     4.1904     0.0184 C.ar    
   9 C9             0.9558     5.5261     0.0218 C.ar    
  10 C10            2.2905     5.8891     0.0105 C.ar    
  11 C11            3.2776     4.9193    -0.0047 C.ar    
  12 C12            2.9368     3.5823    -0.0019 C.ar    
  13 F13           -0.7031     3.8361     0.0290 F       
  14 C14           -1.1321    -0.8178     0.0089 C.ar    
  15 C15           -2.0933    -0.6683     1.0065 C.ar    
  16 C16           -3.2149    -1.4765     1.0083 C.ar    
  17 C17           -3.3821    -2.4319     0.0220 C.ar    
  18 C18           -2.4291    -2.5828    -0.9694 C.ar    
  19 C19           -1.3088    -1.7758    -0.9827 C.ar    
  20 F20           -1.9294     0.2642     1.9702 F       
  21 N21            3.3502     0.7271    -0.0257 N.1     
  22 N22            4.4737     0.7589    -0.0359 N.pl3   
  23 H23            0.1901     6.2876     0.0329 H       
  24 H24            2.5634     6.9340     0.0131 H       
  25 H25            4.3177     5.2099    -0.0138 H       
  26 H26            3.7091     2.8273    -0.0084 H       
  27 H27           -3.9611    -1.3621     1.7807 H       
  28 H28           -4.2591    -3.0621     0.0261 H       
  29 H29           -2.5637    -3.3305    -1.7370 H       
  30 H30           -0.5681    -1.8920    -1.7600 H       
@<TRIPOS>BOND
   1    1    2 1
   2    1    5 2
   3    2    3 am
   4    2   14 1
   5    3    4 1
   6    3    6 2
   7    4    5 1
   8    4   21 2
   9    5    7 1
  10    7    8 ar
  11    7   12 ar
  12    8    9 ar
  13    8   13 1
  14    9   10 ar
  15    9   23 1
  16   10   11 ar
  17   10   24 1
  18   11   12 ar
  19   11   25 1
  20   12   26 1
  21   14   15 ar
  22   14   19 ar
  23   15   16 ar
  24   15   20 1
  25   16   17 ar
  26   16   27 1
  27   17   18 ar
  28   17   28 1
  29   18   19 ar
  30   18   29 1
  31   19   30 1
  32   21   22 2

#	End of record

