#	Name: ASD03730116
#	Creating user name:	WinNT
#	Creation time:	15. 06. 2019 20:44

#	Modifying user name:	WinNT
#	Modification time:	15. 06. 2019 20:44

#	Program:	/corina/corina34_cracker 3.40 0067  02.08.2006

@<TRIPOS>MOLECULE
ASD03730116
  61   66    0    0    0
SMALL
NO_CHARGES


@<TRIPOS>ATOM
   1 C1            -0.0184     1.5028     0.0103 C.2     
   2 C2             0.0021    -0.0041     0.0020 C.3     
   3 O3             1.0236     2.1234     0.0037 O.2     
   4 N4            -1.1946     2.1607     0.0195 N.am    
   5 O5             6.2459     2.8794     2.0976 O.3     
   6 C6             7.6663     2.8233     2.3260 C.3     
   7 O7             7.8789     1.4934     2.8350 O.3     
   8 C8             6.8679     0.7368     2.3152 C.ar    
   9 C9             5.8636     1.5896     1.8629 C.ar    
  10 C10            6.7212    -0.6329     2.1884 C.ar    
  11 C11            5.5735    -1.1688     1.6121 C.ar    
  12 C12            4.5736    -0.3071     1.1716 C.ar    
  13 C13            4.7194     1.0592     1.2910 C.ar    
  14 O14            5.2412    -2.4710     1.3795 O.3     
  15 C15            3.4673    -1.1739     0.6323 C.3     
  16 C16            3.8195    -2.5682     1.1684 C.3     
  17 N17            1.3897    -0.4735    -0.0138 N.am    
  18 C18            2.1130    -0.7212     1.0965 C.2     
  19 C19            3.4026    -1.1504    -0.8661 C.ar    
  20 C20            4.3041    -1.4527    -1.8622 C.ar    
  21 C21            3.9367    -1.3289    -3.1903 C.ar    
  22 C22            2.6624    -0.9003    -3.5148 C.ar    
  23 C23            1.7562    -0.5954    -2.5207 C.ar    
  24 C24            2.1172    -0.7175    -1.1811 C.ar    
  25 O25            1.7424    -0.6020     2.2452 O.2     
  26 C26           -1.2145     3.6256     0.0275 C.3     
  27 C27           -1.1025     4.1450    -1.4072 C.3     
  28 C28           -2.5257     4.1144     0.6460 C.3     
  29 C29           -2.5464     5.6443     0.6544 C.3     
  30 C30           -3.8577     6.1331     1.2730 C.3     
  31 C31           -5.0362     5.6116     0.4483 C.3     
  32 C32           -5.0154     4.0818     0.4399 C.3     
  33 C33           -3.7042     3.5929    -0.1786 C.3     
  34 H34           -0.4983    -0.3791     0.8948 H       
  35 H35           -0.5153    -0.3696    -0.8850 H       
  36 H36           -2.0280     1.6644     0.0207 H       
  37 H37            8.2103     2.9676     1.3925 H       
  38 H38            7.9653     3.5680     3.0637 H       
  39 H39            7.5027    -1.2907     2.5390 H       
  40 H40            3.9391     1.7171     0.9379 H       
  41 H41            3.5894    -3.3363     0.4301 H       
  42 H42            3.3012    -2.7643     2.1070 H       
  43 H43            5.2987    -1.7870    -1.6065 H       
  44 H44            4.6432    -1.5667    -3.9717 H       
  45 H45            2.3756    -0.8035    -4.5515 H       
  46 H46            0.7631    -0.2608    -2.7820 H       
  47 H47           -0.3749     3.9971     0.6150 H       
  48 H48           -1.9421     3.7735    -1.9947 H       
  49 H49           -1.1173     5.2349    -1.4012 H       
  50 H50           -0.1683     3.7967    -1.8479 H       
  51 H51           -2.6055     3.7443     1.6682 H       
  52 H52           -1.7069     6.0158     1.2419 H       
  53 H53           -2.4667     6.0143    -0.3677 H       
  54 H54           -3.9375     5.7630     2.2951 H       
  55 H55           -3.8725     7.2230     1.2790 H       
  56 H56           -5.9703     5.9599     0.8890 H       
  57 H57           -4.9564     5.9817    -0.5738 H       
  58 H58           -5.0952     3.7117     1.4620 H       
  59 H59           -5.8550     3.7102    -0.1476 H       
  60 H60           -3.6244     3.9630    -1.2008 H       
  61 H61           -3.6894     2.5030    -0.1846 H       
@<TRIPOS>BOND
   1    1    2 1
   2    1    3 2
   3    1    4 am
   4    2   17 1
   5    2   34 1
   6    2   35 1
   7    4   26 1
   8    4   36 1
   9    5    6 1
  10    5    9 1
  11    6    7 1
  12    6   37 1
  13    6   38 1
  14    7    8 1
  15    8    9 ar
  16    8   10 ar
  17    9   13 ar
  18   10   11 ar
  19   10   39 1
  20   11   12 ar
  21   11   14 1
  22   12   13 ar
  23   12   15 1
  24   13   40 1
  25   14   16 1
  26   15   16 1
  27   15   18 1
  28   15   19 1
  29   16   41 1
  30   16   42 1
  31   17   18 am
  32   17   24 1
  33   18   25 2
  34   19   20 ar
  35   19   24 ar
  36   20   21 ar
  37   20   43 1
  38   21   22 ar
  39   21   44 1
  40   22   23 ar
  41   22   45 1
  42   23   24 ar
  43   23   46 1
  44   26   27 1
  45   26   28 1
  46   26   47 1
  47   27   48 1
  48   27   49 1
  49   27   50 1
  50   28   29 1
  51   28   33 1
  52   28   51 1
  53   29   30 1
  54   29   52 1
  55   29   53 1
  56   30   31 1
  57   30   54 1
  58   30   55 1
  59   31   32 1
  60   31   56 1
  61   31   57 1
  62   32   33 1
  63   32   58 1
  64   32   59 1
  65   33   60 1
  66   33   61 1

#	End of record

