#	Name: ASD01208095
#	Creating user name:	WinNT
#	Creation time:	15. 06. 2019 19:09

#	Modifying user name:	WinNT
#	Modification time:	15. 06. 2019 19:09

#	Program:	/corina/corina34_cracker 3.40 0067  02.08.2006

@<TRIPOS>MOLECULE
ASD01208095
  65   68    0    0    0
SMALL
NO_CHARGES


@<TRIPOS>ATOM
   1 C1            -0.0838     1.4355     0.0234 C.ar    
   2 C2             0.0198     0.0528    -0.0173 C.ar    
   3 C3            -1.1226    -0.7343     0.0251 C.ar    
   4 C4            -2.3716    -0.1414     0.1078 C.ar    
   5 C5            -2.4802     1.2493     0.1489 C.ar    
   6 C6            -1.3288     2.0364     0.1123 C.ar    
   7 C7            -3.8110     1.8865     0.2372 C.2     
   8 C8            -4.0552     3.2404     0.2843 C.2     
   9 N9            -5.0101     1.2327     0.2801 N.pl3   
  10 C10           -6.0157     2.1669     0.3603 C.2     
  11 C11           -5.4374     3.4177     0.3639 C.2     
  12 O12            1.0379     2.2015    -0.0184 O.3     
  13 C13            0.8547     3.6165    -0.0983 C.3     
  14 C14            2.0871     4.2548    -0.7422 C.3     
  15 O15            3.2199     4.0678     0.1086 O.3     
  16 C16            0.6616     4.1860     1.3086 C.3     
  17 O17           -1.0157    -2.0883    -0.0151 O.3     
  18 C18           -1.4849    -2.7330    -1.1155 C.ar    
  19 C19           -1.5163    -4.1197    -1.1589 C.ar    
  20 C20           -1.9460    -2.0123    -2.2125 C.ar    
  21 C21           -2.4154    -2.7140    -3.3114 C.ar    
  22 C22           -2.4103    -4.0959    -3.2821 C.ar    
  23 N23           -1.9710    -4.7491    -2.2240 N.ar    
  24 C24           -7.4561     1.8814     0.4260 C.2     
  25 N25           -8.3631     2.8114     0.5010 N.2     
  26 C26           -9.6885     2.1652     0.5649 C.3     
  27 C27           -9.3181     0.7001     0.9005 C.3     
  28 O28           -7.9625     0.6296     0.4084 O.3     
  29 S29           -3.0051    -4.9968    -4.6746 S.o2    
  30 C30           -1.5406    -5.2367    -5.7178 C.3     
  31 O31           -3.4386    -6.2361    -4.1310 O.2     
  32 O32           -3.9228    -4.1101    -5.2998 O.2     
  33 C33          -10.5431     2.7805     1.6749 C.3     
  34 C34          -10.7669     4.2655     1.3824 C.3     
  35 O35          -11.8042     2.1108     1.7316 O.3     
  36 C36            4.4300     4.6298    -0.4028 C.3     
  37 H37            0.9922    -0.4126    -0.0825 H       
  38 H38           -3.2602    -0.7544     0.1400 H       
  39 H39           -1.4085     3.1130     0.1443 H       
  40 H40           -3.3119     4.0236     0.2638 H       
  41 H41           -5.1316     0.2706     0.2574 H       
  42 H42           -5.9582     4.3622     0.4187 H       
  43 H43           -0.0256     3.8353    -0.7028 H       
  44 H44            2.2766     3.7859    -1.7078 H       
  45 H45            1.9116     5.3212    -0.8843 H       
  46 H46            1.5418     3.9672     1.9131 H       
  47 H47            0.5218     5.2653     1.2477 H       
  48 H48           -0.2164     3.7312     1.7673 H       
  49 H49           -1.1643    -4.6891    -0.3114 H       
  50 H50           -1.9387    -0.9323    -2.2077 H       
  51 H51           -2.7813    -2.1873    -4.1803 H       
  52 H52          -10.1983     2.2272    -0.3965 H       
  53 H53           -9.3576     0.5229     1.9753 H       
  54 H54           -9.9624     0.0016     0.3666 H       
  55 H55           -0.7870    -5.7958    -5.1631 H       
  56 H56           -1.8193    -5.7924    -6.6131 H       
  57 H57           -1.1354    -4.2662    -6.0040 H       
  58 H58          -10.0306     2.6716     2.6307 H       
  59 H59          -11.2794     4.3744     0.4266 H       
  60 H60          -11.3758     4.7038     2.1731 H       
  61 H61           -9.8050     4.7763     1.3391 H       
  62 H62          -12.3163     2.1665     0.9132 H       
  63 H63            4.6681     4.1687    -1.3614 H       
  64 H64            4.3031     5.7039    -0.5379 H       
  65 H65            5.2420     4.4455     0.3007 H       
@<TRIPOS>BOND
   1    1    2 ar
   2    1   12 1
   3    1    6 ar
   4    2    3 ar
   5    2   37 1
   6    3    4 ar
   7    3   17 1
   8    4    5 ar
   9    4   38 1
  10    5    6 ar
  11    5    7 1
  12    6   39 1
  13    7    8 2
  14    7    9 1
  15    8   11 1
  16    8   40 1
  17    9   10 1
  18    9   41 1
  19   10   11 2
  20   10   24 1
  21   11   42 1
  22   12   13 1
  23   13   14 1
  24   13   16 1
  25   13   43 1
  26   14   15 1
  27   14   44 1
  28   14   45 1
  29   15   36 1
  30   16   46 1
  31   16   47 1
  32   16   48 1
  33   17   18 1
  34   18   19 ar
  35   18   20 ar
  36   19   23 ar
  37   19   49 1
  38   20   21 ar
  39   20   50 1
  40   21   22 ar
  41   21   51 1
  42   22   23 ar
  43   22   29 1
  44   24   25 2
  45   24   28 1
  46   25   26 1
  47   26   27 1
  48   26   33 1
  49   26   52 1
  50   27   28 1
  51   27   53 1
  52   27   54 1
  53   29   30 1
  54   29   31 2
  55   29   32 2
  56   30   55 1
  57   30   56 1
  58   30   57 1
  59   33   34 1
  60   33   35 1
  61   33   58 1
  62   34   59 1
  63   34   60 1
  64   34   61 1
  65   35   62 1
  66   36   63 1
  67   36   64 1
  68   36   65 1

#	End of record

