#	Name: ASD01028646
#	Creating user name:	WinNT
#	Creation time:	15. 06. 2019 18:57

#	Modifying user name:	WinNT
#	Modification time:	15. 06. 2019 18:57

#	Program:	/corina/corina34_cracker 3.40 0067  02.08.2006

@<TRIPOS>MOLECULE
ASD01028646
  22   23    0    0    0
SMALL
NO_CHARGES


@<TRIPOS>ATOM
   1 C1            -0.0184     1.5028     0.0103 C.2     
   2 C2             0.0021    -0.0041     0.0020 C.3     
   3 N3             4.8139     4.3200    -0.0174 N.ar    
   4 C4             4.8379     5.6311    -0.0102 C.ar    
   5 C5             3.6672     6.3863     0.0046 C.ar    
   6 C6             2.4532     5.7605     0.0114 C.ar    
   7 C7             2.4314     4.3514     0.0031 C.ar    
   8 C8             1.2223     3.6442     0.0100 C.ar    
   9 C9             1.2451     2.2553     0.0023 C.ar    
  10 C10            2.4722     1.5643    -0.0127 C.ar    
  11 C11            3.6502     2.2369    -0.0194 C.ar    
  12 C12            3.6609     3.6446    -0.0114 C.ar    
  13 O13           -1.0767     2.0948     0.0185 O.2     
  14 H14            0.0168    -0.3729     1.0276 H       
  15 H15           -0.8878    -0.3767    -0.5053 H       
  16 H16            0.8920    -0.3525    -0.5222 H       
  17 H17            5.7908     6.1393    -0.0154 H       
  18 H18            3.7196     7.4650     0.0110 H       
  19 H19            1.5355     6.3297     0.0232 H       
  20 H20            0.2812     4.1739     0.0222 H       
  21 H21            2.4754     0.4843    -0.0185 H       
  22 H22            4.5820     1.6911    -0.0305 H       
@<TRIPOS>BOND
   1    1    2 1
   2    1    9 1
   3    1   13 2
   4    2   14 1
   5    2   15 1
   6    2   16 1
   7    3    4 ar
   8    3   12 ar
   9    4    5 ar
  10    4   17 1
  11    5    6 ar
  12    5   18 1
  13    6    7 ar
  14    6   19 1
  15    7    8 ar
  16    7   12 ar
  17    8    9 ar
  18    8   20 1
  19    9   10 ar
  20   10   11 ar
  21   10   21 1
  22   11   12 ar
  23   11   22 1

#	End of record

