#	Name: ASD03090586
#	Creating user name:	WinNT
#	Creation time:	15. 06. 2019 20:29

#	Modifying user name:	WinNT
#	Modification time:	15. 06. 2019 20:29

#	Program:	/corina/corina34_cracker 3.40 0067  02.08.2006

@<TRIPOS>MOLECULE
ASD03090586
  35   36    0    0    0
SMALL
NO_CHARGES


@<TRIPOS>ATOM
   1 N1            -0.0162     1.3436     0.0094 N.am    
   2 C2             0.0196     0.1477     0.6300 C.2     
   3 O3             1.0732    -0.2850     1.0556 O.2     
   4 N4            -1.1123    -0.5685     0.7788 N.am    
   5 O5             0.0038    -2.4049     1.9374 O.3     
   6 N6            -0.2815    -3.4718     2.4295 N.2     
   7 C7            -1.5535    -3.7327     2.3170 C.2     
   8 C8            -2.1296    -2.6371     1.6432 C.2     
   9 C9            -1.0755    -1.7991     1.4174 C.2     
  10 C10           -2.2681    -4.9645     2.8101 C.3     
  11 C11            1.1451     2.1275    -0.0709 C.ar    
  12 C12            1.0448     3.5109    -0.1995 C.ar    
  13 C13            2.1923     4.2822    -0.2787 C.ar    
  14 C14            3.4390     3.6766    -0.2298 C.ar    
  15 C15            3.5377     2.2983    -0.1021 C.ar    
  16 C16            2.3934     1.5262    -0.0167 C.ar    
  17 O17            4.5658     4.4341    -0.3075 O.3     
  18 C18            4.3904     5.8462    -0.4384 C.3     
  19 O19           -0.1784     4.1032    -0.2478 O.3     
  20 C20           -0.2056     5.5258    -0.3805 C.3     
  21 Cl21           5.0996     1.5429    -0.0424 Cl      
  22 H22           -0.8437     1.6606    -0.3852 H       
  23 H23           -1.9528    -0.2233     0.4392 H       
  24 H24           -3.1643    -2.4939     1.3686 H       
  25 H25           -2.6152    -4.7993     3.8301 H       
  26 H26           -3.1217    -5.1722     2.1649 H       
  27 H27           -1.5841    -5.8130     2.7921 H       
  28 H28            2.1163     5.3548    -0.3788 H       
  29 H29            2.4721     0.4542     0.0879 H       
  30 H30            3.8304     6.0600    -1.3488 H       
  31 H31            3.8413     6.2255     0.4235 H       
  32 H32            5.3657     6.3303    -0.4896 H       
  33 H33            0.2961     5.8142    -1.3042 H       
  34 H34           -1.2399     5.8686    -0.4065 H       
  35 H35            0.3064     5.9797     0.4680 H       
@<TRIPOS>BOND
   1    1    2 am
   2    1   11 1
   3    1   22 1
   4    2    3 2
   5    2    4 am
   6    4    9 1
   7    4   23 1
   8    5    6 1
   9    5    9 1
  10    6    7 2
  11    7    8 1
  12    7   10 1
  13    8    9 2
  14    8   24 1
  15   10   25 1
  16   10   26 1
  17   10   27 1
  18   11   12 ar
  19   11   16 ar
  20   12   13 ar
  21   12   19 1
  22   13   14 ar
  23   13   28 1
  24   14   15 ar
  25   14   17 1
  26   15   16 ar
  27   15   21 1
  28   16   29 1
  29   17   18 1
  30   18   30 1
  31   18   31 1
  32   18   32 1
  33   19   20 1
  34   20   33 1
  35   20   34 1
  36   20   35 1

#	End of record

