#	Name: ASD01410932
#	Creating user name:	WinNT
#	Creation time:	15. 06. 2019 19:19

#	Modifying user name:	WinNT
#	Modification time:	15. 06. 2019 19:19

#	Program:	/corina/corina34_cracker 3.40 0067  02.08.2006

@<TRIPOS>MOLECULE
ASD01410932
  43   45    0    0    0
SMALL
NO_CHARGES


@<TRIPOS>ATOM
   1 C1             0.2112     1.5199     0.4807 C.ar    
   2 C2             1.3444     1.8953     1.1781 C.ar    
   3 C3             2.5128     1.1700     1.0400 C.ar    
   4 C4             2.5482     0.0688     0.2048 C.ar    
   5 C5             1.4151    -0.3070    -0.4918 C.ar    
   6 C6             0.2467     0.4194    -0.3547 C.ar    
   7 C7            -1.0645     2.3070     0.6361 C.3     
   8 C8             1.4540    -1.5067    -1.4029 C.3     
   9 S9             4.0380    -0.8551     0.0278 S.o2    
  10 N10            4.5444    -0.6734    -1.5384 N.am    
  11 O11            5.0090    -0.2105     0.8408 O.2     
  12 O12            3.6824    -2.2226     0.1784 O.2     
  13 C13            4.8571     0.5923    -2.0264 C.2     
  14 C14            4.6518     0.9579    -3.3368 C.2     
  15 S15            5.1658     2.6226    -3.5720 S.3     
  16 C16            5.6387     2.7570    -1.8844 C.2     
  17 C17            5.3918     1.5844    -1.2377 C.2     
  18 C18            4.1113     0.1234    -4.3395 C.2     
  19 O19            3.7861    -1.0187    -4.0711 O.2     
  20 O20            3.9551     0.5921    -5.5961 O.3     
  21 C21            6.2139     3.9660    -1.2584 C.ar    
  22 C22            6.4189     5.1189    -2.0183 C.ar    
  23 C23            6.9557     6.2441    -1.4277 C.ar    
  24 C24            7.2912     6.2315    -0.0854 C.ar    
  25 C25            7.0906     5.0921     0.6735 C.ar    
  26 C26            6.5492     3.9619     0.0966 C.ar    
  27 H27            1.3167     2.7555     1.8306 H       
  28 H28            3.3982     1.4637     1.5843 H       
  29 H29           -0.6385     0.1262    -0.8995 H       
  30 H30           -1.0927     3.1038    -0.1072 H       
  31 H31           -1.9191     1.6459     0.4925 H       
  32 H32           -1.1044     2.7407     1.6353 H       
  33 H33            1.2768    -2.4110    -0.8208 H       
  34 H34            0.6817    -1.4086    -2.1659 H       
  35 H35            2.4315    -1.5681    -1.8812 H       
  36 H36            4.6232    -1.4489    -2.1157 H       
  37 H37            5.6027     1.4431    -0.1879 H       
  38 H38            3.5782    -0.0512    -6.2118 H       
  39 H39            6.1581     5.1298    -3.0662 H       
  40 H40            7.1149     7.1367    -2.0144 H       
  41 H41            7.7118     7.1148     0.3719 H       
  42 H42            7.3549     5.0887     1.7206 H       
  43 H43            6.3889     3.0746     0.6911 H       
@<TRIPOS>BOND
   1    1    2 ar
   2    1    6 ar
   3    1    7 1
   4    2    3 ar
   5    2   27 1
   6    3    4 ar
   7    3   28 1
   8    4    5 ar
   9    4    9 1
  10    5    6 ar
  11    5    8 1
  12    6   29 1
  13    7   30 1
  14    7   31 1
  15    7   32 1
  16    8   33 1
  17    8   34 1
  18    8   35 1
  19    9   10 am
  20    9   11 2
  21    9   12 2
  22   10   13 1
  23   10   36 1
  24   13   14 2
  25   13   17 1
  26   14   15 1
  27   14   18 1
  28   15   16 1
  29   16   17 2
  30   16   21 1
  31   17   37 1
  32   18   19 2
  33   18   20 1
  34   20   38 1
  35   21   22 ar
  36   21   26 ar
  37   22   23 ar
  38   22   39 1
  39   23   24 ar
  40   23   40 1
  41   24   25 ar
  42   24   41 1
  43   25   26 ar
  44   25   42 1
  45   26   43 1

#	End of record

