#	Name: ASD01900967
#	Creating user name:	WinNT
#	Creation time:	15. 06. 2019 19:52

#	Modifying user name:	WinNT
#	Modification time:	15. 06. 2019 19:52

#	Program:	/corina/corina34_cracker 3.40 0067  02.08.2006

@<TRIPOS>MOLECULE
ASD01900967
  76   81    0    0    0
SMALL
NO_CHARGES


@<TRIPOS>ATOM
   1 C1             3.7420     0.5364     0.8753 C.ar    
   2 C2             4.3884    -0.6649     0.8192 C.ar    
   3 C3             5.7386    -0.7286     0.4544 C.ar    
   4 C4             6.4410     0.4400     0.1517 C.ar    
   5 C5             5.7920     1.6571     0.2141 C.ar    
   6 C6             4.4296     1.7109     0.5675 C.ar    
   7 N7             6.4506     2.8518    -0.0592 N.pl3   
   8 C8             5.6766     3.9806    -0.5885 C.3     
   9 N9             4.4082     4.1070     0.1299 N.am    
  10 C10            3.7669     3.0240     0.6107 C.2     
  11 C11            3.8507     5.3772     0.3217 C.ar    
  12 C12            4.3564     6.2165     1.3056 C.ar    
  13 C13            3.8064     7.4691     1.4938 C.ar    
  14 C14            2.7486     7.8888     0.7004 C.ar    
  15 C15            2.2426     7.0508    -0.2824 C.ar    
  16 C16            2.7956     5.8003    -0.4759 C.ar    
  17 O17            2.6483     3.1309     1.0767 O.2     
  18 O18            2.2073     9.1222     0.8866 O.3     
  19 C19            6.4868     5.2699    -0.4224 C.3     
  20 C20            5.4006     3.7506    -2.0770 C.3     
  21 C21            4.6542     4.9603    -2.6443 C.3     
  22 N22            5.4670     6.1694    -2.4601 N.3     
  23 C23            5.7087     6.4363    -1.0364 C.3     
  24 C24            4.8435     7.3275    -3.1144 C.3     
  25 C25            5.6489     8.5661    -2.8173 C.ar    
  26 C26            6.6935     8.9264    -3.6483 C.ar    
  27 C27            7.4339    10.0616    -3.3776 C.ar    
  28 C28            7.1296    10.8395    -2.2739 C.ar    
  29 C29            6.0817    10.4784    -1.4408 C.ar    
  30 C30            5.3389     9.3438    -1.7176 C.ar    
  31 C31            1.1289     9.4940     0.0259 C.3     
  32 F32            7.8531    11.9491    -2.0084 F       
  33 F33            5.7831    11.2359    -0.3627 F       
  34 F34            0.0545     8.6192     0.2198 F       
  35 F35            0.7256    10.8006     0.3214 F       
  36 F36            1.5509     9.4262    -1.3063 F       
  37 C37            6.4221    -2.0349     0.3900 C.2     
  38 O38            7.7114    -2.2372     0.0554 O.3     
  39 C39            7.9841    -3.5506     0.1043 C.2     
  40 C40            6.8675    -4.2105     0.4726 C.2     
  41 C41            5.8612    -3.2444     0.6638 C.2     
  42 C42            9.3172    -4.1829    -0.2026 C.3     
  43 N43            9.3850    -4.5132    -1.6323 N.3     
  44 C44            9.3780    -3.2960    -2.4547 C.3     
  45 C45           10.5629    -5.3404    -1.9263 C.3     
  46 H46            2.6992     0.5771     1.1532 H       
  47 H47            3.8544    -1.5727     1.0583 H       
  48 H48            7.4829     0.3921    -0.1284 H       
  49 H49            7.4041     2.9371     0.0976 H       
  50 H50            5.1794     5.8896     1.9237 H       
  51 H51            4.1996     8.1219     2.2590 H       
  52 H52            1.4186     7.3780    -0.8991 H       
  53 H53            2.4044     5.1497    -1.2440 H       
  54 H54            6.6533     5.4612     0.6377 H       
  55 H55            7.4460     5.1650    -0.9293 H       
  56 H56            6.3446     3.6239    -2.6070 H       
  57 H57            4.7904     2.8558    -2.2000 H       
  58 H58            4.4680     4.8063    -3.7072 H       
  59 H59            3.7044     5.0782    -2.1228 H       
  60 H60            4.7549     6.5481    -0.5208 H       
  61 H61            6.2876     7.3540    -0.9322 H       
  62 H62            4.8133     7.1635    -4.1916 H       
  63 H63            3.8287     7.4549    -2.7376 H       
  64 H64            6.9315     8.3198    -4.5096 H       
  65 H65            8.2501    10.3416    -4.0271 H       
  66 H66            4.5199     9.0637    -1.0717 H       
  67 H67            6.7654    -5.2779     0.6011 H       
  68 H68            4.8409    -3.4278     0.9667 H       
  69 H69           10.1165    -3.4852     0.0475 H       
  70 H70            9.4319    -5.0929     0.3864 H       
  71 H71           10.2387    -2.6787    -2.1974 H       
  72 H72            9.4289    -3.5693    -3.5087 H       
  73 H73            8.4611    -2.7369    -2.2683 H       
  74 H74           10.5074    -6.2674    -1.3557 H       
  75 H75           10.5887    -5.5704    -2.9915 H       
  76 H76           11.4665    -4.7971    -1.6499 H       
@<TRIPOS>BOND
   1    1    2 ar
   2    1    6 ar
   3    1   46 1
   4    2    3 ar
   5    2   47 1
   6    3    4 ar
   7    3   37 1
   8    4    5 ar
   9    4   48 1
  10    5    7 1
  11    5    6 ar
  12    6   10 1
  13    7    8 1
  14    7   49 1
  15    8    9 1
  16    8   20 1
  17    8   19 1
  18    9   10 am
  19    9   11 1
  20   10   17 2
  21   11   12 ar
  22   11   16 ar
  23   12   13 ar
  24   12   50 1
  25   13   14 ar
  26   13   51 1
  27   14   15 ar
  28   14   18 1
  29   15   16 ar
  30   15   52 1
  31   16   53 1
  32   18   31 1
  33   19   23 1
  34   19   54 1
  35   19   55 1
  36   20   21 1
  37   20   56 1
  38   20   57 1
  39   21   22 1
  40   21   58 1
  41   21   59 1
  42   22   23 1
  43   22   24 1
  44   23   60 1
  45   23   61 1
  46   24   25 1
  47   24   62 1
  48   24   63 1
  49   25   26 ar
  50   25   30 ar
  51   26   27 ar
  52   26   64 1
  53   27   28 ar
  54   27   65 1
  55   28   29 ar
  56   28   32 1
  57   29   30 ar
  58   29   33 1
  59   30   66 1
  60   31   34 1
  61   31   35 1
  62   31   36 1
  63   37   38 1
  64   37   41 2
  65   38   39 1
  66   39   40 2
  67   39   42 1
  68   40   41 1
  69   40   67 1
  70   41   68 1
  71   42   43 1
  72   42   69 1
  73   42   70 1
  74   43   44 1
  75   43   45 1
  76   44   71 1
  77   44   72 1
  78   44   73 1
  79   45   74 1
  80   45   75 1
  81   45   76 1

#	End of record

