#	Name: ASD01940717
#	Creating user name:	WinNT
#	Creation time:	15. 06. 2019 20:13

#	Modifying user name:	WinNT
#	Modification time:	15. 06. 2019 20:13

#	Program:	/corina/corina34_cracker 3.40 0067  02.08.2006

@<TRIPOS>MOLECULE
ASD01940717
  45   47    0    0    0
SMALL
NO_CHARGES


@<TRIPOS>ATOM
   1 C1             0.3564     0.3268    -1.2895 C.ar    
   2 C2             0.0617    -0.3268    -0.1072 C.ar    
   3 C3             0.8018    -0.0689     1.0340 C.ar    
   4 C4             1.8417     0.8463     0.9965 C.ar    
   5 C5             2.1422     1.5057    -0.1879 C.ar    
   6 C6             1.3957     1.2439    -1.3356 C.ar    
   7 N7             1.6949     1.9061    -2.5338 N.am    
   8 S8             0.4760     2.3350    -3.5695 S.o2    
   9 C9            -0.4747     3.5822    -2.6578 C.3     
  10 O10            1.1464     2.9277    -4.6733 O.2     
  11 O11           -0.2847     1.1452    -3.7273 O.2     
  12 F12            0.5095    -0.7104     2.1865 F       
  13 F13            2.5621     1.0971     2.1116 F       
  14 N14            3.1931     2.4324    -0.2292 N.pl3   
  15 C15            4.4465     2.0466    -0.7126 C.ar    
  16 C16            5.5123     2.9389    -0.6759 C.ar    
  17 C17            4.6315     0.7694    -1.2254 C.ar    
  18 C18            5.8716     0.3906    -1.7021 C.ar    
  19 C19            6.9290     1.2819    -1.6693 C.ar    
  20 C20            6.7500     2.5540    -1.1542 C.ar    
  21 Cl21           5.2879     4.5348    -0.0304 Cl      
  22 Br22           8.6246     0.7588    -2.3229 Br      
  23 C23           -1.7130     3.9720    -3.4675 C.3     
  24 C24           -2.5148     5.0240    -2.6986 C.3     
  25 C25           -2.9485     4.4485    -1.3489 C.3     
  26 C26           -1.7103     4.0587    -0.5391 C.3     
  27 C27           -0.9084     3.0068    -1.3081 C.3     
  28 H28           -0.2203     0.1197    -2.1788 H       
  29 H29           -0.7484    -1.0403    -0.0738 H       
  30 H30            2.6160     2.1132    -2.7566 H       
  31 H31            0.1451     4.4639    -2.4946 H       
  32 H32            3.0504     3.3414     0.0777 H       
  33 H33            3.8068     0.0726    -1.2512 H       
  34 H34            6.0158    -0.6028    -2.1006 H       
  35 H35            7.5774     3.2476    -1.1299 H       
  36 H36           -1.4040     4.3820    -4.4291 H       
  37 H37           -2.3328     3.0904    -3.6307 H       
  38 H38           -1.8950     5.9056    -2.5354 H       
  39 H39           -3.3970     5.3017    -3.2755 H       
  40 H40           -3.5198     5.1979    -0.8010 H       
  41 H41           -3.5683     3.5669    -1.5120 H       
  42 H42           -1.0905     4.9403    -0.3759 H       
  43 H43           -2.0192     3.6487     0.4225 H       
  44 H44           -1.5282     2.1251    -1.4712 H       
  45 H45           -0.0263     2.7290    -0.7312 H       
@<TRIPOS>BOND
   1    1    2 ar
   2    1    6 ar
   3    1   28 1
   4    2    3 ar
   5    2   29 1
   6    3    4 ar
   7    3   12 1
   8    4    5 ar
   9    4   13 1
  10    5    6 ar
  11    5   14 1
  12    6    7 1
  13    7    8 am
  14    7   30 1
  15    8    9 1
  16    8   10 2
  17    8   11 2
  18    9   23 1
  19    9   27 1
  20    9   31 1
  21   14   15 1
  22   14   32 1
  23   15   16 ar
  24   15   17 ar
  25   16   21 1
  26   16   20 ar
  27   17   18 ar
  28   17   33 1
  29   18   19 ar
  30   18   34 1
  31   19   20 ar
  32   19   22 1
  33   20   35 1
  34   23   24 1
  35   23   36 1
  36   23   37 1
  37   24   25 1
  38   24   38 1
  39   24   39 1
  40   25   26 1
  41   25   40 1
  42   25   41 1
  43   26   27 1
  44   26   42 1
  45   26   43 1
  46   27   44 1
  47   27   45 1

#	End of record

