#	Name: ASD04880014
#	Creating user name:	WinNT
#	Creation time:	15. 06. 2019 20:52

#	Modifying user name:	WinNT
#	Modification time:	15. 06. 2019 20:52

#	Program:	/corina/corina34_cracker 3.40 0067  02.08.2006

@<TRIPOS>MOLECULE
ASD04880014
  43   45    0    0    0
SMALL
NO_CHARGES


@<TRIPOS>ATOM
   1 C1            -1.4518     0.3905    -0.2263 C.2     
   2 C2            -1.1977    -1.0641    -0.2157 C.ar    
   3 C3             0.0969    -1.5487    -0.4232 C.ar    
   4 C4             0.3324    -2.8942    -0.4140 C.ar    
   5 C5            -0.7221    -3.7871    -0.1964 C.ar    
   6 C6            -2.0173    -3.3016     0.0116 C.ar    
   7 C7            -2.2509    -1.9557     0.0074 C.ar    
   8 O8            -0.6162     1.1567     0.2127 O.2     
   9 N9            -2.6077     0.8690    -0.7277 N.am    
  10 C10           -2.9143     2.2979    -0.6259 C.3     
  11 C11           -3.5575    -0.0398    -1.3744 C.3     
  12 N12            0.6541    -7.1860    -0.3101 N.am    
  13 N13            0.6803    -5.7940    -0.3667 N.2     
  14 C14           -0.4688    -5.2382    -0.1868 C.2     
  15 C15           -1.5165    -6.3054     0.0360 C.3     
  16 C16           -0.7263    -7.6260    -0.0526 C.3     
  17 C17            1.7184    -7.9972    -0.4707 C.2     
  18 C18            3.0727    -7.4214    -0.6059 C.ar    
  19 C19            4.1599    -8.2477    -0.8959 C.ar    
  20 C20            5.4232    -7.7025    -1.0209 C.ar    
  21 C21            5.6109    -6.3390    -0.8583 C.ar    
  22 C22            4.5367    -5.5166    -0.5709 C.ar    
  23 C23            3.2692    -6.0482    -0.4498 C.ar    
  24 O24            1.5642    -9.2027    -0.5044 O.2     
  25 F25            6.4771    -8.4998    -1.3015 F       
  26 H26            0.9110    -0.8593    -0.5912 H       
  27 H27            1.3325    -3.2686    -0.5750 H       
  28 H28           -2.8319    -3.9906     0.1793 H       
  29 H29           -3.2501    -1.5806     0.1721 H       
  30 H30           -2.0968     2.8097    -0.1181 H       
  31 H31           -3.0389     2.7148    -1.6253 H       
  32 H32           -3.8353     2.4324    -0.0587 H       
  33 H33           -4.2000    -0.4917    -0.6187 H       
  34 H34           -4.1683     0.5180    -2.0842 H       
  35 H35           -3.0109    -0.8218    -1.9014 H       
  36 H36           -1.9697    -6.1964     1.0213 H       
  37 H37           -2.2778    -6.2624    -0.7429 H       
  38 H38           -1.0936    -8.2382    -0.8762 H       
  39 H39           -0.7854    -8.1722     0.8888 H       
  40 H40            4.0138    -9.3103    -1.0219 H       
  41 H41            6.6002    -5.9169    -0.9561 H       
  42 H42            4.6896    -4.4549    -0.4454 H       
  43 H43            2.4311    -5.4036    -0.2298 H       
@<TRIPOS>BOND
   1    1    2 1
   2    1    8 2
   3    1    9 am
   4    2    3 ar
   5    2    7 ar
   6    3    4 ar
   7    3   26 1
   8    4    5 ar
   9    4   27 1
  10    5    6 ar
  11    5   14 1
  12    6    7 ar
  13    6   28 1
  14    7   29 1
  15    9   10 1
  16    9   11 1
  17   10   30 1
  18   10   31 1
  19   10   32 1
  20   11   33 1
  21   11   34 1
  22   11   35 1
  23   12   13 1
  24   12   16 1
  25   12   17 am
  26   13   14 2
  27   14   15 1
  28   15   16 1
  29   15   36 1
  30   15   37 1
  31   16   38 1
  32   16   39 1
  33   17   18 1
  34   17   24 2
  35   18   19 ar
  36   18   23 ar
  37   19   20 ar
  38   19   40 1
  39   20   21 ar
  40   20   25 1
  41   21   22 ar
  42   21   41 1
  43   22   23 ar
  44   22   42 1
  45   23   43 1

#	End of record

