#	Name: ASD02030060
#	Creating user name:	WinNT
#	Creation time:	15. 06. 2019 20:14

#	Modifying user name:	WinNT
#	Modification time:	15. 06. 2019 20:14

#	Program:	/corina/corina34_cracker 3.40 0067  02.08.2006

@<TRIPOS>MOLECULE
ASD02030060
  62   65    0    0    0
SMALL
NO_CHARGES


@<TRIPOS>ATOM
   1 C1            -2.7167    -6.5122     4.8571 C.3     
   2 C2            -1.8428    -6.8263     2.5327 C.ar    
   3 C3            -2.0167    -5.9979     3.6256 C.ar    
   4 C4            -1.5489    -4.6977     3.5887 C.ar    
   5 C5            -0.9068    -4.2259     2.4591 C.ar    
   6 C6            -0.7321    -5.0546     1.3665 C.ar    
   7 C7            -1.1991    -6.3551     1.4038 C.ar    
   8 S8             0.0858    -4.4531    -0.0736 S.o2    
   9 N9             1.6770    -4.8959     0.0455 N.am    
  10 C10            2.4517    -4.4280     1.1009 C.ar    
  11 O11           -0.4512    -5.1773    -1.1720 O.2     
  12 O12            0.0565    -3.0349     0.0112 O.2     
  13 C13            3.2664    -5.3069     1.8045 C.ar    
  14 C14            4.0377    -4.8416     2.8544 C.ar    
  15 C15            3.9910    -3.4811     3.2014 C.ar    
  16 C16            3.1655    -2.6092     2.4830 C.ar    
  17 C17            2.4128    -3.0781     1.4455 C.ar    
  18 C18            4.8062    -2.9753     4.3161 C.2     
  19 O19            4.7595    -1.6694     4.6469 O.3     
  20 O20            5.5222    -3.7349     4.9390 O.2     
  21 C21            5.5906    -1.2406     5.7576 C.3     
  22 C22            4.8004    -1.3180     7.0875 C.3     
  23 C23            5.5510    -0.3078     7.9904 C.3     
  24 C24            5.9251     0.8461     7.0373 C.3     
  25 C25            5.9503     0.2530     5.6176 C.3     
  26 N26            7.2884     0.3947     5.0382 N.am    
  27 C27            7.6269     1.5289     4.3937 C.2     
  28 O28            6.8218     2.4345     4.2931 O.2     
  29 C29            8.9750     1.6718     3.8099 C.ar    
  30 C30            9.3280     2.8469     3.1412 C.ar    
  31 C31           10.5866     2.9762     2.5979 C.ar    
  32 C32           11.5056     1.9399     2.7139 C.ar    
  33 C33           11.1582     0.7692     3.3779 C.ar    
  34 C34            9.9036     0.6345     3.9293 C.ar    
  35 O35           12.7451     2.0712     2.1771 O.3     
  36 O36            4.8346    -5.6945     3.5454 O.3     
  37 H37           -1.9842    -6.9500     5.5353 H       
  38 H38           -3.2266    -5.6881     5.3560 H       
  39 H39           -3.4455    -7.2705     4.5708 H       
  40 H40           -2.2044    -7.8435     2.5632 H       
  41 H41           -1.6853    -4.0503     4.4423 H       
  42 H42           -0.5419    -3.2098     2.4300 H       
  43 H43           -1.0624    -7.0026     0.5503 H       
  44 H44            2.0686    -5.4817    -0.6211 H       
  45 H45            3.2971    -6.3516     1.5324 H       
  46 H46            3.1271    -1.5627     2.7471 H       
  47 H47            1.7772    -2.4011     0.8941 H       
  48 H48            6.4934    -1.8488     5.8144 H       
  49 H49            3.7653    -1.0097     6.9403 H       
  50 H50            4.8493    -2.3224     7.5081 H       
  51 H51            4.8981     0.0511     8.7860 H       
  52 H52            6.4486    -0.7634     8.4085 H       
  53 H53            5.1782     1.6376     7.0980 H       
  54 H54            6.9085     1.2394     7.2951 H       
  55 H55            5.2157     0.7567     4.9894 H       
  56 H56            7.9307    -0.3277     5.1185 H       
  57 H57            8.6144     3.6525     3.0503 H       
  58 H58           10.8601     3.8840     2.0806 H       
  59 H59           11.8749    -0.0340     3.4656 H       
  60 H60            9.6346    -0.2753     4.4454 H       
  61 H61           13.3966     2.4534     2.7808 H       
  62 H62            5.7284    -5.7764     3.1856 H       
@<TRIPOS>BOND
   1    1    3 1
   2    1   37 1
   3    1   38 1
   4    1   39 1
   5    2    3 ar
   6    2    7 ar
   7    2   40 1
   8    3    4 ar
   9    4    5 ar
  10    4   41 1
  11    5    6 ar
  12    5   42 1
  13    6    7 ar
  14    6    8 1
  15    7   43 1
  16    8    9 am
  17    8   11 2
  18    8   12 2
  19    9   10 1
  20    9   44 1
  21   10   13 ar
  22   10   17 ar
  23   13   14 ar
  24   13   45 1
  25   14   15 ar
  26   14   36 1
  27   15   16 ar
  28   15   18 1
  29   16   17 ar
  30   16   46 1
  31   17   47 1
  32   18   19 1
  33   18   20 2
  34   19   21 1
  35   21   22 1
  36   21   25 1
  37   21   48 1
  38   22   23 1
  39   22   49 1
  40   22   50 1
  41   23   24 1
  42   23   51 1
  43   23   52 1
  44   24   25 1
  45   24   53 1
  46   24   54 1
  47   25   26 1
  48   25   55 1
  49   26   27 am
  50   26   56 1
  51   27   28 2
  52   27   29 1
  53   29   30 ar
  54   29   34 ar
  55   30   31 ar
  56   30   57 1
  57   31   32 ar
  58   31   58 1
  59   32   33 ar
  60   32   35 1
  61   33   34 ar
  62   33   59 1
  63   34   60 1
  64   35   61 1
  65   36   62 1

#	End of record

