#	Name: ASD01900899
#	Creating user name:	WinNT
#	Creation time:	15. 06. 2019 19:52

#	Modifying user name:	WinNT
#	Modification time:	15. 06. 2019 19:52

#	Program:	/corina/corina34_cracker 3.40 0067  02.08.2006

@<TRIPOS>MOLECULE
ASD01900899
  49   51    0    0    0
SMALL
NO_CHARGES


@<TRIPOS>ATOM
   1 C1            -0.4556     1.7915    -0.9301 C.ar    
   2 C2            -1.5008     2.5113    -1.4770 C.ar    
   3 C3            -2.6695     1.8671    -1.8387 C.ar    
   4 C4            -2.7933     0.5031    -1.6533 C.ar    
   5 C5            -1.7486    -0.2180    -1.1060 C.ar    
   6 C6            -0.5766     0.4249    -0.7500 C.ar    
   7 Cl7            0.7360    -0.4801    -0.0630 Cl      
   8 C8             0.8182     2.4937    -0.5358 C.3     
   9 S9             1.0127     3.9976    -1.5314 S.o2    
  10 C10            2.5896     4.6317    -1.0666 C.2     
  11 O11            1.1581     3.6699    -2.9064 O.2     
  12 O12            0.0949     4.9970    -1.1096 O.2     
  13 C13            3.7685     4.2278    -1.5440 C.2     
  14 N14            4.8110     4.8593    -1.0379 N.2     
  15 C15            4.5691     5.7778    -0.1554 C.2     
  16 S16            2.8847     5.9148     0.1039 S.3     
  17 N17            5.5369     6.5429     0.4823 N.am    
  18 C18            5.1725     7.4735     1.3865 C.2     
  19 O19            3.9969     7.6432     1.6438 O.2     
  20 C20            6.2047     8.2895     2.0666 C.ar    
  21 N21            7.4870     8.0996     1.7814 N.ar    
  22 C22            8.4345     8.8030     2.3623 C.ar    
  23 C23            8.1257     9.7751     3.3001 C.ar    
  24 C24            6.7986    10.0063     3.6277 C.ar    
  25 C25            5.8211     9.2540     2.9962 C.ar    
  26 C26            3.8989     3.1387    -2.5774 C.3     
  27 C27            4.4069     3.7391    -3.8898 C.3     
  28 C28            4.8891     2.0823    -2.0829 C.3     
  29 C29            0.7565     2.8678     0.9465 C.3     
  30 H30           -1.4049     3.5773    -1.6214 H       
  31 H31           -3.4861     2.4301    -2.2661 H       
  32 H32           -3.7066     0.0005    -1.9358 H       
  33 H33           -1.8458    -1.2837    -0.9604 H       
  34 H34            1.6666     1.8315    -0.7084 H       
  35 H35            6.4752     6.4074     0.2770 H       
  36 H36            9.4673     8.6201     2.1051 H       
  37 H37            8.9113    10.3470     3.7716 H       
  38 H38            6.5324    10.7582     4.3559 H       
  39 H39            4.7773     9.4075     3.2271 H       
  40 H40            2.9260     2.6758    -2.7422 H       
  41 H41            4.5012     2.9514    -4.6373 H       
  42 H42            3.7015     4.4917    -4.2421 H       
  43 H43            5.3799     4.2020    -3.7250 H       
  44 H44            4.5272     1.6546    -1.1480 H       
  45 H45            4.9834     1.2946    -2.8304 H       
  46 H46            5.8621     2.5452    -1.9182 H       
  47 H47           -0.0919     3.5301     1.1190 H       
  48 H48            0.6396     1.9642     1.5447 H       
  49 H49            1.6777     3.3758     1.2317 H       
@<TRIPOS>BOND
   1    1    2 ar
   2    1    8 1
   3    1    6 ar
   4    2    3 ar
   5    2   30 1
   6    3    4 ar
   7    3   31 1
   8    4    5 ar
   9    4   32 1
  10    5    6 ar
  11    5   33 1
  12    6    7 1
  13    8    9 1
  14    8   29 1
  15    8   34 1
  16    9   10 1
  17    9   11 2
  18    9   12 2
  19   10   13 2
  20   10   16 1
  21   13   14 1
  22   13   26 1
  23   14   15 2
  24   15   16 1
  25   15   17 1
  26   17   18 am
  27   17   35 1
  28   18   19 2
  29   18   20 1
  30   20   21 ar
  31   20   25 ar
  32   21   22 ar
  33   22   23 ar
  34   22   36 1
  35   23   24 ar
  36   23   37 1
  37   24   25 ar
  38   24   38 1
  39   25   39 1
  40   26   27 1
  41   26   28 1
  42   26   40 1
  43   27   41 1
  44   27   42 1
  45   27   43 1
  46   28   44 1
  47   28   45 1
  48   28   46 1
  49   29   47 1
  50   29   48 1
  51   29   49 1

#	End of record

