#	Name: ASD03180022
#	Creating user name:	WinNT
#	Creation time:	15. 06. 2019 20:33

#	Modifying user name:	WinNT
#	Modification time:	15. 06. 2019 20:33

#	Program:	/corina/corina34_cracker 3.40 0067  02.08.2006

@<TRIPOS>MOLECULE
ASD03180022
  47   49    0    0    0
SMALL
NO_CHARGES


@<TRIPOS>ATOM
   1 C1             7.4409     3.6379     1.7862 C.ar    
   2 C2             7.1993     4.9768     2.0306 C.ar    
   3 C3             5.9916     5.5397     1.6627 C.ar    
   4 C4             5.0255     4.7637     1.0499 C.ar    
   5 C5             5.2674     3.4250     0.8046 C.ar    
   6 C6             6.4746     2.8618     1.1739 C.ar    
   7 S7             4.0356     2.4356     0.0246 S.o2    
   8 O8             2.7827     3.0143     0.3628 O.2     
   9 N9             4.2142     2.6293    -1.6103 N.am    
  10 O10            4.3688     1.0834     0.3072 O.2     
  11 C11            3.4090     3.6249    -2.3222 C.3     
  12 C12            5.1772     1.8051    -2.3448 C.3     
  13 C13            4.4596     0.6459    -2.9869 C.ar    
  14 C14            4.1913     4.9068    -2.4479 C.2     
  15 N15            3.6466     5.9703    -3.0713 N.am    
  16 C16            4.4072     7.1268    -3.2756 C.ar    
  17 O17            5.3112     4.9814    -1.9881 O.2     
  18 C18            4.0098     0.7476    -4.2900 C.ar    
  19 C19            3.3515    -0.3157    -4.8790 C.ar    
  20 C20            3.1434    -1.4809    -4.1650 C.ar    
  21 C21            3.5939    -1.5830    -2.8621 C.ar    
  22 C22            4.2561    -0.5212    -2.2746 C.ar    
  23 C23            4.2318     7.8804    -4.4291 C.ar    
  24 C24            4.9839     9.0214    -4.6282 C.ar    
  25 C25            5.9112     9.4144    -3.6807 C.ar    
  26 C26            6.0890     8.6661    -2.5307 C.ar    
  27 C27            5.3348     7.5265    -2.3230 C.ar    
  28 Br28           7.3589     9.2072    -1.2382 Br      
  29 H29            8.3862     3.1992     2.0697 H       
  30 H30            7.9541     5.5831     2.5094 H       
  31 H31            5.8026     6.5856     1.8543 H       
  32 H32            4.0817     5.2033     0.7630 H       
  33 H33            6.6635     1.8157     0.9826 H       
  34 H34            3.1633     3.2503    -3.3159 H       
  35 H35            2.4899     3.8131    -1.7673 H       
  36 H36            5.6573     2.4074    -3.1160 H       
  37 H37            5.9327     1.4279    -1.6555 H       
  38 H38            2.7272     5.9340    -3.3784 H       
  39 H39            4.1724     1.6580    -4.8479 H       
  40 H40            2.9995    -0.2359    -5.8969 H       
  41 H41            2.6284    -2.3114    -4.6249 H       
  42 H42            3.4310    -2.4932    -2.3042 H       
  43 H43            4.6113    -0.6023    -1.2579 H       
  44 H44            3.5080     7.5741    -5.1698 H       
  45 H45            4.8478     9.6073    -5.5252 H       
  46 H46            6.4981    10.3072    -3.8389 H       
  47 H47            5.4701     6.9453    -1.4228 H       
@<TRIPOS>BOND
   1    1    2 ar
   2    1    6 ar
   3    1   29 1
   4    2    3 ar
   5    2   30 1
   6    3    4 ar
   7    3   31 1
   8    4    5 ar
   9    4   32 1
  10    5    6 ar
  11    5    7 1
  12    6   33 1
  13    7    8 2
  14    7    9 am
  15    7   10 2
  16    9   11 1
  17    9   12 1
  18   11   14 1
  19   11   34 1
  20   11   35 1
  21   12   13 1
  22   12   36 1
  23   12   37 1
  24   13   18 ar
  25   13   22 ar
  26   14   15 am
  27   14   17 2
  28   15   16 1
  29   15   38 1
  30   16   23 ar
  31   16   27 ar
  32   18   19 ar
  33   18   39 1
  34   19   20 ar
  35   19   40 1
  36   20   21 ar
  37   20   41 1
  38   21   22 ar
  39   21   42 1
  40   22   43 1
  41   23   24 ar
  42   23   44 1
  43   24   25 ar
  44   24   45 1
  45   25   26 ar
  46   25   46 1
  47   26   27 ar
  48   26   28 1
  49   27   47 1

#	End of record

