#	Name: ASD02508158
#	Creating user name:	WinNT
#	Creation time:	15. 06. 2019 20:23

#	Modifying user name:	WinNT
#	Modification time:	15. 06. 2019 20:23

#	Program:	/corina/corina34_cracker 3.40 0067  02.08.2006

@<TRIPOS>MOLECULE
ASD02508158
  34   36    0    0    0
SMALL
NO_CHARGES


@<TRIPOS>ATOM
   1 C1             0.0092     1.5372     0.1807 C.ar    
   2 C2             1.1248     1.9077     0.9562 C.ar    
   3 C3             0.1056     0.4433    -0.6496 C.ar    
   4 C4             1.3167    -0.2738    -0.6989 C.ar    
   5 C5             2.3957     0.0986     0.0633 C.ar    
   6 C6             2.2993     1.1998     0.8975 C.ar    
   7 S7            -1.5527     2.3438     0.1415 S.3     
   8 C8            -2.4312     1.3624    -1.0136 C.2     
   9 S9            -1.3569     0.0908    -1.5600 S.3     
  10 S10            3.8973    -0.8196    -0.0201 S.o2    
  11 N11            4.1344    -1.5076     1.4674 N.am    
  12 C12            3.2249    -2.4396     1.9555 C.ar    
  13 O13           -3.5809     1.5352    -1.3748 O.2     
  14 O14            3.6632    -1.8902    -0.9247 O.2     
  15 O15            4.9395     0.1306    -0.1935 O.2     
  16 N16            2.2285    -2.8493     1.1860 N.ar    
  17 C17            3.3734    -2.9378     3.2468 C.ar    
  18 C18            2.4606    -3.8649     3.7193 C.ar    
  19 C19            1.4273    -4.2633     2.8818 C.ar    
  20 C20            1.3441    -3.7320     1.6104 C.ar    
  21 C21            3.4777     1.6175     1.7387 C.3     
  22 C22            0.4104    -5.2704     3.3538 C.3     
  23 F23           -0.6576    -4.6038     3.9639 F       
  24 F24           -0.0615    -6.0043     2.2603 F       
  25 F25            1.0063    -6.1379     4.2755 F       
  26 Cl26           4.6855    -2.4042     4.2505 Cl      
  27 H27            1.0551     2.7652     1.6090 H       
  28 H28            1.3978    -1.1330    -1.3482 H       
  29 H29            4.9078    -1.2605     1.9983 H       
  30 H30            2.5503    -4.2694     4.7166 H       
  31 H31            0.5418    -4.0393     0.9559 H       
  32 H32            4.1427     2.2458     1.1461 H       
  33 H33            3.1254     2.1773     2.6051 H       
  34 H34            4.0175     0.7316     2.0734 H       
@<TRIPOS>BOND
   1    1    2 ar
   2    1    3 ar
   3    1    7 1
   4    2    6 ar
   5    2   27 1
   6    3    4 ar
   7    3    9 1
   8    4    5 ar
   9    4   28 1
  10    5    6 ar
  11    5   10 1
  12    6   21 1
  13    7    8 1
  14    8    9 1
  15    8   13 2
  16   10   11 am
  17   10   14 2
  18   10   15 2
  19   11   12 1
  20   11   29 1
  21   12   16 ar
  22   12   17 ar
  23   16   20 ar
  24   17   18 ar
  25   17   26 1
  26   18   19 ar
  27   18   30 1
  28   19   20 ar
  29   19   22 1
  30   20   31 1
  31   21   32 1
  32   21   33 1
  33   21   34 1
  34   22   23 1
  35   22   24 1
  36   22   25 1

#	End of record

