#	Name: ASD02038104
#	Creating user name:	WinNT
#	Creation time:	15. 06. 2019 20:16

#	Modifying user name:	WinNT
#	Modification time:	15. 06. 2019 20:16

#	Program:	/corina/corina34_cracker 3.40 0067  02.08.2006

@<TRIPOS>MOLECULE
ASD02038104
  53   56    0    0    0
SMALL
NO_CHARGES


@<TRIPOS>ATOM
   1 C1            -0.0167     1.3786     0.0096 C.ar    
   2 C2             0.0021    -0.0041     0.0020 C.ar    
   3 C3             1.1695     2.0894     0.0021 C.ar    
   4 C4             2.3774     1.4200    -0.0131 C.ar    
   5 C5             2.3998     0.0311    -0.0208 C.ar    
   6 C6             1.2064    -0.6798    -0.0132 C.ar    
   7 N7             3.6196    -0.6491    -0.0366 N.3     
   8 N8             5.6087    -2.4061     0.9940 N.3     
   9 C9             5.8170    -0.9514     0.9998 C.3     
  10 C10            4.4626    -0.2452     1.0974 C.3     
  11 C11            6.8916    -3.1215     0.9773 C.3     
  12 C12            6.6426    -4.6093     0.7213 C.3     
  13 C13            7.9788    -5.3544     0.7040 C.3     
  14 O14            5.8151    -5.1392     1.7588 O.3     
  15 O15            7.7575    -6.7211     0.3501 O.3     
  16 C16            8.8505    -7.5276     0.2887 C.ar    
  17 C17            8.7050    -8.8635    -0.0487 C.ar    
  18 C18            9.8194    -9.6851    -0.1110 C.ar    
  19 C19           11.0820    -9.1619     0.1665 C.ar    
  20 C20           11.2224    -7.8247     0.5028 C.ar    
  21 C21           10.1097    -7.0086     0.5589 C.ar    
  22 C22            4.7657    -2.8100    -0.1400 C.3     
  23 C23            3.4114    -2.1039    -0.0424 C.3     
  24 O24            9.9833   -10.9981    -0.4056 O.3     
  25 C25           11.2861   -11.3102    -0.3233 C.2     
  26 N26           11.9893   -10.2141     0.0239 N.am    
  27 O27           11.7589   -12.4113    -0.5303 O.2     
  28 C28           -1.3328     2.1126     0.0198 C.3     
  29 H29           -0.9261    -0.5561     0.0083 H       
  30 H30            1.1513     3.1692     0.0078 H       
  31 H31            3.3034     1.9757    -0.0193 H       
  32 H32            1.2204    -1.7597    -0.0188 H       
  33 H33            6.4333    -0.6757     1.8554 H       
  34 H34            6.3176    -0.6520     0.0790 H       
  35 H35            4.6126     0.8341     1.0726 H       
  36 H36            3.9739    -0.5234     2.0311 H       
  37 H37            7.5228    -2.7173     0.1860 H       
  38 H38            7.3897    -2.9967     1.9388 H       
  39 H39            6.1445    -4.7341    -0.2402 H       
  40 H40            8.6428    -4.8927    -0.0269 H       
  41 H41            8.4355    -5.3044     1.6924 H       
  42 H42            6.1964    -5.0619     2.6441 H       
  43 H43            7.7250    -9.2639    -0.2623 H       
  44 H44           12.2007    -7.4209     0.7179 H       
  45 H45           10.2184    -5.9665     0.8206 H       
  46 H46            5.2544    -2.5318    -1.0737 H       
  47 H47            4.6157    -3.8894    -0.1152 H       
  48 H48            2.9107    -2.4032     0.8784 H       
  49 H49            2.7950    -2.3796    -0.8980 H       
  50 H50           12.9497   -10.1650     0.1514 H       
  51 H51           -1.6453     2.2840     1.0499 H       
  52 H52           -1.2191     3.0696    -0.4893 H       
  53 H53           -2.0861     1.5151    -0.4937 H       
@<TRIPOS>BOND
   1    1    2 ar
   2    1    3 ar
   3    1   28 1
   4    2    6 ar
   5    2   29 1
   6    3    4 ar
   7    3   30 1
   8    4    5 ar
   9    4   31 1
  10    5    6 ar
  11    5    7 1
  12    6   32 1
  13    7   23 1
  14    7   10 1
  15    8    9 1
  16    8   11 1
  17    8   22 1
  18    9   10 1
  19    9   33 1
  20    9   34 1
  21   10   35 1
  22   10   36 1
  23   11   12 1
  24   11   37 1
  25   11   38 1
  26   12   14 1
  27   12   13 1
  28   12   39 1
  29   13   15 1
  30   13   40 1
  31   13   41 1
  32   14   42 1
  33   15   16 1
  34   16   17 ar
  35   16   21 ar
  36   17   18 ar
  37   17   43 1
  38   18   19 ar
  39   18   24 1
  40   19   20 ar
  41   19   26 1
  42   20   21 ar
  43   20   44 1
  44   21   45 1
  45   22   23 1
  46   22   46 1
  47   22   47 1
  48   23   48 1
  49   23   49 1
  50   24   25 1
  51   25   26 am
  52   25   27 2
  53   26   50 1
  54   28   51 1
  55   28   52 1
  56   28   53 1

#	End of record

