#	Name: ASD01910817
#	Creating user name:	WinNT
#	Creation time:	15. 06. 2019 19:56

#	Modifying user name:	WinNT
#	Modification time:	15. 06. 2019 19:56

#	Program:	/corina/corina34_cracker 3.40 0067  02.08.2006

@<TRIPOS>MOLECULE
ASD01910817
  37   39    0    0    0
SMALL
NO_CHARGES


@<TRIPOS>ATOM
   1 N1            -0.0070     1.4094    -0.0033 N.2     
   2 N2            -0.0070     0.0095    -0.0453 N.pl3   
   3 C3             1.2421     1.8244     0.0383 C.2     
   4 C4             2.0820     0.6978     0.0242 C.2     
   5 C5             1.2901    -0.4115    -0.0275 C.2     
   6 C6             1.7541    -1.8165    -0.0588 C.ar    
   7 C7             1.6865     3.2390     0.0906 C.ar    
   8 C8             0.7392     4.2602     0.0991 C.ar    
   9 C9             1.1675     5.5752     0.1481 C.ar    
  10 C10            2.5336     5.8264     0.1871 C.ar    
  11 C11            3.4195     4.7617     0.1759 C.ar    
  12 N12            2.9824     3.5196     0.1344 N.ar    
  13 C13           -1.1914    -0.8510    -0.0983 C.3     
  14 C14           -1.6289    -1.0158    -1.5310 C.2     
  15 O15           -2.7013    -1.7684    -1.8229 O.3     
  16 O16           -1.0143    -0.4704    -2.4168 O.2     
  17 C17           -3.0648    -1.8826    -3.2240 C.3     
  18 F18            2.9929     7.0960     0.2350 F       
  19 C19            0.9288    -2.8152    -0.5759 C.ar    
  20 C20            1.3671    -4.1233    -0.6022 C.ar    
  21 C21            2.6219    -4.4453    -0.1167 C.ar    
  22 C22            3.4450    -3.4594     0.3973 C.ar    
  23 C23            3.0207    -2.1467     0.4235 C.ar    
  24 H24            3.1617     0.7085     0.0498 H       
  25 H25           -0.3153     4.0288     0.0675 H       
  26 H26            0.4561     6.3878     0.1555 H       
  27 H27            4.4821     4.9522     0.2061 H       
  28 H28           -0.9505    -1.8272     0.3226 H       
  29 H29           -1.9972    -0.3959     0.4776 H       
  30 H30           -3.9462    -2.5167    -3.3202 H       
  31 H31           -3.2840    -0.8927    -3.6243 H       
  32 H32           -2.2372    -2.3240    -3.7793 H       
  33 H33           -0.0513    -2.5651    -0.9545 H       
  34 H34            0.7290    -4.8974    -1.0022 H       
  35 H35            2.9601    -5.4707    -0.1388 H       
  36 H36            4.4234    -3.7170     0.7752 H       
  37 H37            3.6642    -1.3778     0.8250 H       
@<TRIPOS>BOND
   1    1    2 1
   2    1    3 2
   3    2   13 1
   4    2    5 1
   5    3    4 1
   6    3    7 1
   7    4    5 2
   8    4   24 1
   9    5    6 1
  10    6   19 ar
  11    6   23 ar
  12    7    8 ar
  13    7   12 ar
  14    8    9 ar
  15    8   25 1
  16    9   10 ar
  17    9   26 1
  18   10   11 ar
  19   10   18 1
  20   11   12 ar
  21   11   27 1
  22   13   14 1
  23   13   28 1
  24   13   29 1
  25   14   15 1
  26   14   16 2
  27   15   17 1
  28   17   30 1
  29   17   31 1
  30   17   32 1
  31   19   20 ar
  32   19   33 1
  33   20   21 ar
  34   20   34 1
  35   21   22 ar
  36   21   35 1
  37   22   23 ar
  38   22   36 1
  39   23   37 1

#	End of record

