#	Name: ASD01940278
#	Creating user name:	WinNT
#	Creation time:	15. 06. 2019 20:12

#	Modifying user name:	WinNT
#	Modification time:	15. 06. 2019 20:12

#	Program:	/corina/corina34_cracker 3.40 0067  02.08.2006

@<TRIPOS>MOLECULE
ASD01940278
  41   42    0    0    0
SMALL
NO_CHARGES


@<TRIPOS>ATOM
   1 C1            -0.3119     1.2963     0.8636 C.ar    
   2 C2            -0.0422     0.0024     0.4571 C.ar    
   3 C3            -0.9391    -0.6743    -0.3518 C.ar    
   4 C4            -2.1114    -0.0574    -0.7584 C.ar    
   5 C5            -2.3875     1.2417    -0.3534 C.ar    
   6 C6            -1.4858     1.9187     0.4662 C.ar    
   7 N7            -1.7595     3.2297     0.8784 N.am    
   8 S8            -3.1072     3.5478     1.7867 S.o2    
   9 O9            -3.0604     4.9514     2.0035 O.2     
  10 O10           -4.1710     2.9546     1.0549 O.2     
  11 F11           -0.6706    -1.9383    -0.7460 F       
  12 F12           -2.9848    -0.7193    -1.5486 F       
  13 N13           -3.5725     1.8687    -0.7628 N.pl3   
  14 C14           -4.8038     1.2393    -0.5563 C.ar    
  15 C15           -5.9880     1.9181    -0.8265 C.ar    
  16 C16           -4.8478    -0.0663    -0.0867 C.ar    
  17 C17           -6.0663    -0.6856     0.1164 C.ar    
  18 C18           -7.2416    -0.0074    -0.1477 C.ar    
  19 C19           -7.2031     1.2920    -0.6208 C.ar    
  20 F20           -5.9504     3.1871    -1.2885 F       
  21 C21           -8.5679    -0.6873     0.0749 C.3     
  22 C22           -2.8273     2.6541     3.3403 C.3     
  23 C23            0.6677     2.0284     1.7441 C.3     
  24 C24            0.3538     1.7326     3.2121 C.3     
  25 H25            0.8707    -0.4815     0.7713 H       
  26 H26           -1.1596     3.9509     0.6317 H       
  27 H27           -3.5382     2.7392    -1.1894 H       
  28 H28           -3.9305    -0.5978     0.1194 H       
  29 H29           -6.1004    -1.7014     0.4817 H       
  30 H30           -8.1232     1.8189    -0.8261 H       
  31 H31           -8.9040    -0.5030     1.0953 H       
  32 H32           -9.3018    -0.2906    -0.6266 H       
  33 H33           -8.4573    -1.7601    -0.0830 H       
  34 H34           -1.9736     3.0885     3.8606 H       
  35 H35           -3.7142     2.7320     3.9691 H       
  36 H36           -2.6258     1.6048     3.1246 H       
  37 H37            1.6804     1.6967     1.5152 H       
  38 H38            0.5871     3.1005     1.5642 H       
  39 H39            0.9889     2.3469     3.8504 H       
  40 H40           -0.6929     1.9613     3.4130 H       
  41 H41            0.5416     0.6790     3.4186 H       
@<TRIPOS>BOND
   1    1    2 ar
   2    1   23 1
   3    1    6 ar
   4    2    3 ar
   5    2   25 1
   6    3    4 ar
   7    3   11 1
   8    4    5 ar
   9    4   12 1
  10    5    6 ar
  11    5   13 1
  12    6    7 1
  13    7    8 am
  14    7   26 1
  15    8    9 2
  16    8   10 2
  17    8   22 1
  18   13   14 1
  19   13   27 1
  20   14   15 ar
  21   14   16 ar
  22   15   20 1
  23   15   19 ar
  24   16   17 ar
  25   16   28 1
  26   17   18 ar
  27   17   29 1
  28   18   19 ar
  29   18   21 1
  30   19   30 1
  31   21   31 1
  32   21   32 1
  33   21   33 1
  34   22   34 1
  35   22   35 1
  36   22   36 1
  37   23   24 1
  38   23   37 1
  39   23   38 1
  40   24   39 1
  41   24   40 1
  42   24   41 1

#	End of record

