#	Name: ASD07931955
#	Creating user name:	WinNT
#	Creation time:	15. 06. 2019 21:13

#	Modifying user name:	WinNT
#	Modification time:	15. 06. 2019 21:13

#	Program:	/corina/corina34_cracker 3.40 0067  02.08.2006

@<TRIPOS>MOLECULE
ASD07931955
  49   52    0    0    0
SMALL
NO_CHARGES


@<TRIPOS>ATOM
   1 C1             0.0592     1.5177     0.5826 C.ar    
   2 C2             0.1586     0.2610     1.1759 C.ar    
   3 C3             1.3748    -0.4026     1.1471 C.ar    
   4 C4             2.4499     0.2138     0.5257 C.ar    
   5 C5             2.2790     1.4652    -0.0441 C.ar    
   6 N6             1.1133     2.0729    -0.0024 N.ar    
   7 C7            -1.2354     2.2376     0.5994 C.2     
   8 O8            -2.2051     1.7317     1.1293 O.2     
   9 N9            -1.3378     3.4535     0.0271 N.am    
  10 C10            3.7915    -0.4704     0.4707 C.3     
  11 F11            3.8709    -1.2487    -0.6891 F       
  12 F12            4.8060     0.4929     0.4563 F       
  13 F13            3.9431    -1.2905     1.5940 F       
  14 C14           -2.5838     4.0848    -0.0562 C.ar    
  15 C15           -2.6729     5.4660     0.0609 C.ar    
  16 C16           -3.9035     6.0870    -0.0216 C.ar    
  17 C17           -5.0484     5.3336    -0.2209 C.ar    
  18 C18           -4.9620     3.9567    -0.3374 C.ar    
  19 C19           -3.7323     3.3320    -0.2617 C.ar    
  20 F20           -6.2514     5.9432    -0.3013 F       
  21 S21           -2.7009     9.7849    -1.8100 S.3     
  22 C22           -2.0612     9.0510    -0.3428 C.2     
  23 N23           -2.6990     8.1690     0.3244 N.2     
  24 C24           -4.0007     7.5854     0.1058 C.3     
  25 C25           -4.7852     8.2003    -1.0624 C.3     
  26 C26           -3.9058     8.5085    -2.2594 C.3     
  27 O27           -5.4047     9.2968     0.9700 O.3     
  28 C28           -4.9109     7.9884     1.3023 C.3     
  29 C29           -5.3845     9.4779    -0.4535 C.3     
  30 C30           -6.8087     9.6844    -0.9729 C.3     
  31 F31           -7.5996     8.5876    -0.6140 F       
  32 F32           -7.3450    10.8490    -0.4132 F       
  33 F33           -6.7839     9.8054    -2.3664 F       
  34 N34           -0.8210     9.4449     0.1036 N.pl3   
  35 H35           -0.6999    -0.1893     1.6519 H       
  36 H36            1.4828    -1.3776     1.5988 H       
  37 H37            3.1145     1.9484    -0.5287 H       
  38 H38           -0.5478     3.8910    -0.3270 H       
  39 H39           -1.7803     6.0538     0.2167 H       
  40 H40           -5.8561     3.3711    -0.4925 H       
  41 H41           -3.6648     2.2584    -0.3575 H       
  42 H42           -5.5888     7.5269    -1.3604 H       
  43 H43           -4.5244     8.8664    -3.0824 H       
  44 H44           -3.3800     7.6044    -2.5664 H       
  45 H45           -5.7379     7.2855     1.4025 H       
  46 H46           -4.3304     8.0254     2.2241 H       
  47 H47           -4.7648    10.3373    -0.7096 H       
  48 H48           -0.3186    10.1136    -0.3876 H       
  49 H49           -0.4490     9.0539     0.9096 H       
@<TRIPOS>BOND
   1    1    2 ar
   2    1    6 ar
   3    1    7 1
   4    2    3 ar
   5    2   35 1
   6    3    4 ar
   7    3   36 1
   8    4    5 ar
   9    4   10 1
  10    5    6 ar
  11    5   37 1
  12    7    8 2
  13    7    9 am
  14    9   14 1
  15    9   38 1
  16   10   11 1
  17   10   12 1
  18   10   13 1
  19   14   15 ar
  20   14   19 ar
  21   15   16 ar
  22   15   39 1
  23   16   17 ar
  24   16   24 1
  25   17   18 ar
  26   17   20 1
  27   18   19 ar
  28   18   40 1
  29   19   41 1
  30   21   22 1
  31   21   26 1
  32   22   23 2
  33   22   34 1
  34   23   24 1
  35   24   28 1
  36   24   25 1
  37   25   26 1
  38   25   29 1
  39   25   42 1
  40   26   43 1
  41   26   44 1
  42   27   28 1
  43   27   29 1
  44   28   45 1
  45   28   46 1
  46   29   30 1
  47   29   47 1
  48   30   31 1
  49   30   32 1
  50   30   33 1
  51   34   48 1
  52   34   49 1

#	End of record

