#	Name: ASD02038064
#	Creating user name:	WinNT
#	Creation time:	15. 06. 2019 20:16

#	Modifying user name:	WinNT
#	Modification time:	15. 06. 2019 20:16

#	Program:	/corina/corina34_cracker 3.40 0067  02.08.2006

@<TRIPOS>MOLECULE
ASD02038064
  55   58    0    0    0
SMALL
NO_CHARGES


@<TRIPOS>ATOM
   1 N1             0.0481     1.4114     1.0442 N.am    
   2 N2             1.2473     3.3914     0.7432 N.am    
   3 C3             1.2258     2.0592     0.9461 C.2     
   4 C4             1.3018     6.7351     0.0322 C.3     
   5 O5             0.4171     7.3994    -0.8722 O.3     
   6 C6             0.3190     8.7509    -0.7590 C.ar    
   7 C7            -0.5217     9.4584    -1.6056 C.ar    
   8 C8             1.0554     9.4209     0.2069 C.ar    
   9 C9             0.9559    10.7934     0.3228 C.ar    
  10 C10            0.1190    11.5027    -0.5280 C.ar    
  11 C11           -0.6214    10.8310    -1.4914 C.ar    
  12 O12            2.2690     1.4418     1.0406 O.2     
  13 N13            0.0172    12.8956    -0.4106 N.am    
  14 C14            0.0239     0.0167     1.1579 C.ar    
  15 C15            1.0892    13.6202    -0.0337 C.2     
  16 N16            0.9656    14.9451     0.1803 N.am    
  17 O17            2.1679    13.0786     0.1134 O.2     
  18 C18            2.1309    15.7328     0.5901 C.3     
  19 C19           -0.9836    -0.7142     0.5424 C.ar    
  20 C20            1.0107    -0.6395     1.8818 C.ar    
  21 C21            0.9843    -2.0160     1.9918 C.ar    
  22 C22           -0.0233    -2.7406     1.3820 C.ar    
  23 C23           -1.0044    -2.0905     0.6561 C.ar    
  24 C24           -0.0490    -4.2425     1.5041 C.3     
  25 C25           -1.2784    -4.8772     2.1571 C.3     
  26 C26           -1.0629    -5.0036     0.6477 C.3     
  27 C27            2.2846     4.4222     0.5867 C.3     
  28 C28            1.2792     5.2306    -0.2451 C.3     
  29 C29            0.2437     4.4532     0.5743 C.3     
  30 H30           -0.7827     1.9121     1.0400 H       
  31 H31            2.3142     7.1147    -0.1053 H       
  32 H32            0.9803     6.9205     1.0570 H       
  33 H33           -1.0982     8.9357    -2.3545 H       
  34 H34            1.7065     8.8690     0.8687 H       
  35 H35            1.5288    11.3148     1.0753 H       
  36 H36           -1.2727    11.3822    -2.1536 H       
  37 H37           -0.8248    13.3381    -0.6007 H       
  38 H38            0.1051    15.3771     0.0630 H       
  39 H39            2.5155    15.3482     1.5347 H       
  40 H40            2.9052    15.6605    -0.1737 H       
  41 H41            1.8392    16.7757     0.7141 H       
  42 H42           -1.7504    -0.2070    -0.0244 H       
  43 H43            1.7981    -0.0741     2.3579 H       
  44 H44            1.7517    -2.5270     2.5543 H       
  45 H45           -1.7902    -2.6592     0.1814 H       
  46 H46            0.9164    -4.7163     1.6819 H       
  47 H47           -1.1219    -5.7689     2.7642 H       
  48 H48           -2.0687    -4.2086     2.4985 H       
  49 H49           -1.7114    -4.4181    -0.0041 H       
  50 H50           -0.7646    -5.9784     0.2617 H       
  51 H51            2.5608     4.9057     1.5237 H       
  52 H52            3.1491     4.0847     0.0150 H       
  53 H53            1.2790     4.9859    -1.3073 H       
  54 H54           -0.6254     4.1434    -0.0060 H       
  55 H55           -0.0263     4.9432     1.5098 H       
@<TRIPOS>BOND
   1    1   14 1
   2    1    3 am
   3    1   30 1
   4    2    3 am
   5    2   27 1
   6    2   29 1
   7    3   12 2
   8    4    5 1
   9    4   28 1
  10    4   31 1
  11    4   32 1
  12    5    6 1
  13    6    7 ar
  14    6    8 ar
  15    7   11 ar
  16    7   33 1
  17    8    9 ar
  18    8   34 1
  19    9   10 ar
  20    9   35 1
  21   10   11 ar
  22   10   13 1
  23   11   36 1
  24   13   15 am
  25   13   37 1
  26   14   20 ar
  27   14   19 ar
  28   15   16 am
  29   15   17 2
  30   16   18 1
  31   16   38 1
  32   18   39 1
  33   18   40 1
  34   18   41 1
  35   19   23 ar
  36   19   42 1
  37   20   21 ar
  38   20   43 1
  39   21   22 ar
  40   21   44 1
  41   22   23 ar
  42   22   24 1
  43   23   45 1
  44   24   25 1
  45   24   26 1
  46   24   46 1
  47   25   26 1
  48   25   47 1
  49   25   48 1
  50   26   49 1
  51   26   50 1
  52   27   28 1
  53   27   51 1
  54   27   52 1
  55   28   29 1
  56   28   53 1
  57   29   54 1
  58   29   55 1

#	End of record

