#	Name: ASD00170387
#	Creating user name:	WinNT
#	Creation time:	15. 06. 2019 18:32

#	Modifying user name:	WinNT
#	Modification time:	15. 06. 2019 18:32

#	Program:	/corina/corina34_cracker 3.40 0067  02.08.2006

@<TRIPOS>MOLECULE
ASD00170387
  25   27    0    0    0
SMALL
NO_CHARGES


@<TRIPOS>ATOM
   1 C1            -0.0162     1.3420     0.0094 C.2     
   2 C2             0.0021    -0.0041     0.0020 C.2     
   3 S3            -1.6546    -0.6070     0.0151 S.3     
   4 C4            -2.2573     1.0455     0.0299 C.2     
   5 N5            -1.2616     1.8661     0.0290 N.2     
   6 N6            -3.5940     1.4095     0.0450 N.pl3   
   7 C7             1.3901     1.8540    -0.0013 C.ar    
   8 C8             2.2759     0.7831    -0.0155 C.ar    
   9 C9             1.4410    -0.4719    -0.0142 C.3     
  10 C10            1.8836     3.1592     0.0010 C.ar    
  11 C11            3.2455     3.3771    -0.0108 C.ar    
  12 C12            4.1249     2.3029    -0.0254 C.ar    
  13 C13            3.6356     1.0029    -0.0276 C.ar    
  14 O14            5.4659     2.5236    -0.0379 O.3     
  15 C15            5.8994     3.8852    -0.0352 C.3     
  16 H16           -4.2827     0.7264     0.0481 H       
  17 H17           -3.8412     2.3475     0.0524 H       
  18 H18            1.6543    -1.0653     0.8749 H       
  19 H19            1.6372    -1.0557    -0.9136 H       
  20 H20            1.2012     3.9962     0.0117 H       
  21 H21            3.6290     4.3867    -0.0090 H       
  22 H22            4.3193     0.1670    -0.0387 H       
  23 H23            5.5110     4.3920    -0.9186 H       
  24 H24            5.5291     4.3826     0.8613 H       
  25 H25            6.9888     3.9198    -0.0461 H       
@<TRIPOS>BOND
   1    1    2 2
   2    1    7 1
   3    1    5 1
   4    2    3 1
   5    2    9 1
   6    3    4 1
   7    4    5 2
   8    4    6 1
   9    6   16 1
  10    6   17 1
  11    7    8 ar
  12    7   10 ar
  13    8    9 1
  14    8   13 ar
  15    9   18 1
  16    9   19 1
  17   10   11 ar
  18   10   20 1
  19   11   12 ar
  20   11   21 1
  21   12   13 ar
  22   12   14 1
  23   13   22 1
  24   14   15 1
  25   15   23 1
  26   15   24 1
  27   15   25 1

#	End of record

