#	Name: ASD01911257
#	Creating user name:	WinNT
#	Creation time:	15. 06. 2019 19:57

#	Modifying user name:	WinNT
#	Modification time:	15. 06. 2019 19:57

#	Program:	/corina/corina34_cracker 3.40 0067  02.08.2006

@<TRIPOS>MOLECULE
ASD01911257
  50   53    0    0    0
SMALL
NO_CHARGES


@<TRIPOS>ATOM
   1 C1            -0.2894     0.6938     0.1874 C.3     
   2 C2             0.4432    -0.6303     0.4259 C.3     
   3 N3             1.2277    -0.9591    -0.7721 N.am    
   4 C4             2.1677     0.0405    -1.2973 C.3     
   5 C5             1.4158     1.3571    -1.5165 C.3     
   6 C6             0.7241     1.7677    -0.2145 C.3     
   7 C7             1.0881    -2.1552    -1.3774 C.2     
   8 O8             1.6710    -2.3805    -2.4169 O.2     
   9 C9             0.2078    -3.2126    -0.7627 C.3     
  10 C10            2.7368    -0.4404    -2.6073 C.2     
  11 N11            3.9585    -0.8639    -2.8160 N.2     
  12 C12            4.0114    -1.1878    -4.1278 C.2     
  13 N13            2.8304    -0.9442    -4.6335 N.2     
  14 O14            2.0880    -0.5202    -3.7732 O.3     
  15 C15            5.1896    -1.7196    -4.8571 C.ar    
  16 C16            6.3914    -1.9300    -4.1849 C.ar    
  17 C17            7.4840    -2.4248    -4.8681 C.ar    
  18 C18            7.3871    -2.7116    -6.2176 C.ar    
  19 C19            6.1960    -2.5045    -6.8901 C.ar    
  20 C20            5.0958    -2.0157    -6.2156 C.ar    
  21 C21            6.0982    -2.8188    -8.3607 C.3     
  22 C22            0.2145    -4.4782    -1.6379 C.3     
  23 C23            0.7739    -5.6175    -0.7609 C.3     
  24 C24            0.4970    -5.1510     0.6899 C.3     
  25 C25            0.7632    -3.6270     0.6156 C.3     
  26 H26           -1.0204     0.5664    -0.6110 H       
  27 H27           -0.7982     0.9979     1.1021 H       
  28 H28            1.1094    -0.5302     1.2828 H       
  29 H29           -0.2830    -1.4208     0.6154 H       
  30 H30            2.9745     0.1954    -0.5809 H       
  31 H31            2.1206     2.1333    -1.8145 H       
  32 H32            0.6687     1.2235    -2.2989 H       
  33 H33            0.2086     2.7169    -0.3609 H       
  34 H34            1.4691     1.8771     0.5736 H       
  35 H35           -0.8099    -2.8364    -0.6582 H       
  36 H36            6.4682    -1.7061    -3.1311 H       
  37 H37            8.4164    -2.5880    -4.3480 H       
  38 H38            8.2445    -3.0982    -6.7484 H       
  39 H39            4.1663    -1.8547    -6.7414 H       
  40 H40            5.7811    -3.8536    -8.4908 H       
  41 H41            5.3703    -2.1545    -8.8266 H       
  42 H42            7.0723    -2.6758    -8.8284 H       
  43 H43           -0.8000    -4.7167    -1.9574 H       
  44 H44            0.8546    -4.3276    -2.5072 H       
  45 H45            0.2501    -6.5507    -0.9681 H       
  46 H46            1.8448    -5.7352    -0.9260 H       
  47 H47           -0.5380    -5.3492     0.9685 H       
  48 H48            1.1844    -5.6297     1.3874 H       
  49 H49            1.8325    -3.4233     0.6728 H       
  50 H50            0.2317    -3.1075     1.4129 H       
@<TRIPOS>BOND
   1    1    2 1
   2    1    6 1
   3    1   26 1
   4    1   27 1
   5    2    3 1
   6    2   28 1
   7    2   29 1
   8    3    4 1
   9    3    7 am
  10    4    5 1
  11    4   10 1
  12    4   30 1
  13    5    6 1
  14    5   31 1
  15    5   32 1
  16    6   33 1
  17    6   34 1
  18    7    8 2
  19    7    9 1
  20    9   22 1
  21    9   25 1
  22    9   35 1
  23   10   11 2
  24   10   14 1
  25   11   12 1
  26   12   13 2
  27   12   15 1
  28   13   14 1
  29   15   16 ar
  30   15   20 ar
  31   16   17 ar
  32   16   36 1
  33   17   18 ar
  34   17   37 1
  35   18   19 ar
  36   18   38 1
  37   19   20 ar
  38   19   21 1
  39   20   39 1
  40   21   40 1
  41   21   41 1
  42   21   42 1
  43   22   23 1
  44   22   43 1
  45   22   44 1
  46   23   24 1
  47   23   45 1
  48   23   46 1
  49   24   25 1
  50   24   47 1
  51   24   48 1
  52   25   49 1
  53   25   50 1

#	End of record

