#	Name: ASD01884097
#	Creating user name:	WinNT
#	Creation time:	15. 06. 2019 19:47

#	Modifying user name:	WinNT
#	Modification time:	15. 06. 2019 19:47

#	Program:	/corina/corina34_cracker 3.40 0067  02.08.2006

@<TRIPOS>MOLECULE
ASD01884097
  58   60    0    0    0
SMALL
NO_CHARGES


@<TRIPOS>ATOM
   1 C1            -0.1118     0.3163     1.7321 C.2     
   2 C2             0.7371    -0.6875     1.2725 C.2     
   3 C3             1.1218    -1.7018     2.1504 C.2     
   4 C4             0.6706    -1.7026     3.4301 C.2     
   5 N5            -0.1556    -0.7292     3.8843 N.am    
   6 C6            -0.5526     0.2757     3.0807 C.2     
   7 O7            -1.2962     1.1424     3.5072 O.2     
   8 C8            -0.6200    -0.7679     5.2732 C.3     
   9 C9             0.3613     0.0004     6.1607 C.3     
  10 C10           -0.1237    -0.0400     7.6112 C.3     
  11 C11           -0.0870    -1.4821     8.1213 C.3     
  12 C12            0.7878     0.8309     8.4782 C.3     
  13 C13           -0.5279     1.3740     0.8610 C.1     
  14 N14           -0.8580     2.2130     0.1700 N.1     
  15 O15            1.1846    -0.6796    -0.0138 O.3     
  16 N16            2.2884     0.2723    -0.1403 N.3     
  17 C17            3.1316     0.2640     1.0632 C.3     
  18 C18            4.3160     1.2116     0.8596 C.3     
  19 N19            3.8152     2.5646     0.5803 N.3     
  20 C20            2.9720     2.5729    -0.6233 C.3     
  21 C21            1.7875     1.6253    -0.4197 C.3     
  22 C22            4.8639     3.4691     0.4600 C.ar    
  23 C23            4.5930     4.8073     0.1946 C.ar    
  24 C24            5.6462     5.6967     0.0779 C.ar    
  25 C25            6.9396     5.2158     0.2312 C.ar    
  26 C26            7.1357     3.8746     0.4937 C.ar    
  27 N27            6.1117     3.0500     0.6047 N.ar    
  28 C28            1.5524    -1.7350    -0.2995 C.2     
  29 C29            0.3256    -0.3681    -0.7179 C.2     
  30 H30            1.7796    -2.4880     1.8105 H       
  31 H31            0.9754    -2.4939     4.0990 H       
  32 H32           -1.6062    -0.3084     5.3395 H       
  33 H33           -0.6785    -1.8036     5.6081 H       
  34 H34            1.3475    -0.4592     6.0944 H       
  35 H35            0.4198     1.0360     5.8259 H       
  36 H36           -1.1447     0.3381     7.6636 H       
  37 H37           -0.4326    -1.5108     9.1546 H       
  38 H38           -0.7364    -2.1025     7.5036 H       
  39 H39            0.9339    -1.8602     8.0689 H       
  40 H40            0.7617     1.8582     8.1149 H       
  41 H41            0.4423     0.8021     9.5116 H       
  42 H42            1.8088     0.4528     8.4258 H       
  43 H43            2.5449     0.5942     1.9205 H       
  44 H44            3.5004    -0.7460     1.2419 H       
  45 H45            4.9271     1.2291     1.7621 H       
  46 H46            4.9180     0.8659     0.0192 H       
  47 H47            2.6032     3.5829    -0.8020 H       
  48 H48            3.5587     2.2427    -1.4806 H       
  49 H49            1.1765     1.6078    -1.3221 H       
  50 H50            1.1856     1.9710     0.4207 H       
  51 H51            3.5742     5.1474     0.0807 H       
  52 H52            5.4663     6.7415    -0.1282 H       
  53 H53            7.7837     5.8841     0.1457 H       
  54 H54            8.1402     3.4962     0.6133 H       
  55 H55            1.0912    -2.2637    -1.1206 H       
  56 H56            2.3579    -2.1944     0.2542 H       
  57 H57           -0.1465     0.5960    -0.6000 H       
  58 H58           -0.0065    -1.0406    -1.4950 H       
@<TRIPOS>BOND
   1    1    2 2
   2    1   13 1
   3    1    6 1
   4    2    3 1
   5    2   15 1
   6    3    4 2
   7    3   30 1
   8    4    5 1
   9    4   31 1
  10    5    6 am
  11    5    8 1
  12    6    7 2
  13    8    9 1
  14    8   32 1
  15    8   33 1
  16    9   10 1
  17    9   34 1
  18    9   35 1
  19   10   11 1
  20   10   12 1
  21   10   36 1
  22   11   37 1
  23   11   38 1
  24   11   39 1
  25   12   40 1
  26   12   41 1
  27   12   42 1
  28   13   14 3
  29   15   16 1
  30   15   28 2
  31   15   29 2
  32   16   17 1
  33   16   21 1
  34   17   18 1
  35   17   43 1
  36   17   44 1
  37   18   19 1
  38   18   45 1
  39   18   46 1
  40   19   20 1
  41   19   22 1
  42   20   21 1
  43   20   47 1
  44   20   48 1
  45   21   49 1
  46   21   50 1
  47   22   23 ar
  48   22   27 ar
  49   23   24 ar
  50   23   51 1
  51   24   25 ar
  52   24   52 1
  53   25   26 ar
  54   25   53 1
  55   26   27 ar
  56   26   54 1
  57   28   55 1
  58   28   56 1
  59   29   57 1
  60   29   58 1

#	End of record

