#	Name: ASD03093006
#	Creating user name:	WinNT
#	Creation time:	15. 06. 2019 20:33

#	Modifying user name:	WinNT
#	Modification time:	15. 06. 2019 20:33

#	Program:	/corina/corina34_cracker 3.40 0067  02.08.2006

@<TRIPOS>MOLECULE
ASD03093006
  56   60    0    0    0
SMALL
NO_CHARGES


@<TRIPOS>ATOM
   1 C1            -0.0167     1.3768     0.0096 C.ar    
   2 C2             0.0021    -0.0041     0.0020 C.ar    
   3 C3             1.2094    -0.6776    -0.0133 C.ar    
   4 C4             2.3942     0.0319    -0.0209 C.ar    
   5 C5             2.3775     1.4167    -0.0132 C.ar    
   6 C6             1.1705     2.0900     0.0021 C.ar    
   7 C7             3.5184     2.4115    -0.0183 C.3     
   8 C8             2.8834     3.7521    -0.4447 C.3     
   9 C9             1.4177     3.5834     0.0084 C.3     
  10 N10            3.5180     4.8738     0.2519 N.am    
  11 C11            3.4997     6.1049    -0.2964 C.2     
  12 C12            4.1525     7.2587     0.4202 C.3     
  13 O13            2.9578     6.2840    -1.3666 O.2     
  14 C14            3.9924     8.5138    -0.3985 C.ar    
  15 N15            2.9227     9.2698    -0.1971 N.ar    
  16 C16            2.7225    10.3795    -0.8791 C.ar    
  17 C17            3.6787    10.7543    -1.8401 C.ar    
  18 C18            4.8092     9.9172    -2.0246 C.ar    
  19 N19            4.9202     8.8131    -1.2754 N.ar    
  20 C20            1.4994    11.2255    -0.6357 C.3     
  21 C21            0.2432    10.3994    -0.9194 C.3     
  22 C22           -0.9986    11.2583    -0.6723 C.3     
  23 C23           -1.0138    11.7258     0.7844 C.3     
  24 C24            0.2423    12.5519     1.0681 C.3     
  25 C25            1.4841    11.6929     0.8210 C.3     
  26 C26            3.5452    11.9185    -2.6110 C.ar    
  27 C27            4.5042    12.2294    -3.5272 C.ar    
  28 C28            5.6148    11.4078    -3.7094 C.ar    
  29 C29            5.7759    10.2703    -2.9775 C.ar    
  30 H30           -0.9602     1.9023     0.0169 H       
  31 H31           -0.9255    -0.5573     0.0084 H       
  32 H32            1.2259    -1.7574    -0.0189 H       
  33 H33            3.3369    -0.4950    -0.0326 H       
  34 H34            3.9496     2.4976     0.9791 H       
  35 H35            4.2809     2.1089    -0.7360 H       
  36 H36            2.9424     3.8824    -1.5253 H       
  37 H37            0.7459     4.0809    -0.6911 H       
  38 H38            1.2838     3.9847     1.0130 H       
  39 H39            3.9514     4.7305     1.1078 H       
  40 H40            3.6799     7.3966     1.3927 H       
  41 H41            5.2129     7.0477     0.5581 H       
  42 H42            1.5204    12.0929    -1.2955 H       
  43 H43            0.2540    10.0663    -1.9572 H       
  44 H44            0.2221     9.5320    -0.2597 H       
  45 H45           -0.9776    12.1257    -1.3321 H       
  46 H46           -1.8936    10.6698    -0.8744 H       
  47 H47           -1.8985    12.3377     0.9604 H       
  48 H48           -1.0349    10.8583     1.4441 H       
  49 H49            0.2634    13.4193     0.4084 H       
  50 H50            0.2315    12.8849     2.1059 H       
  51 H51            1.4631    10.8255     1.4808 H       
  52 H52            2.3791    12.2815     1.0231 H       
  53 H53            2.6887    12.5631    -2.4796 H       
  54 H54            4.4022    13.1256    -4.1211 H       
  55 H55            6.3603    11.6774    -4.4429 H       
  56 H56            6.6424     9.6440    -3.1303 H       
@<TRIPOS>BOND
   1    1    2 ar
   2    1    6 ar
   3    1   30 1
   4    2    3 ar
   5    2   31 1
   6    3    4 ar
   7    3   32 1
   8    4    5 ar
   9    4   33 1
  10    5    6 ar
  11    5    7 1
  12    6    9 1
  13    7    8 1
  14    7   34 1
  15    7   35 1
  16    8    9 1
  17    8   10 1
  18    8   36 1
  19    9   37 1
  20    9   38 1
  21   10   11 am
  22   10   39 1
  23   11   12 1
  24   11   13 2
  25   12   14 1
  26   12   40 1
  27   12   41 1
  28   14   15 ar
  29   14   19 ar
  30   15   16 ar
  31   16   17 ar
  32   16   20 1
  33   17   18 ar
  34   17   26 ar
  35   18   19 ar
  36   18   29 ar
  37   20   21 1
  38   20   25 1
  39   20   42 1
  40   21   22 1
  41   21   43 1
  42   21   44 1
  43   22   23 1
  44   22   45 1
  45   22   46 1
  46   23   24 1
  47   23   47 1
  48   23   48 1
  49   24   25 1
  50   24   49 1
  51   24   50 1
  52   25   51 1
  53   25   52 1
  54   26   27 ar
  55   26   53 1
  56   27   28 ar
  57   27   54 1
  58   28   29 ar
  59   28   55 1
  60   29   56 1

#	End of record

