#	Name: ASD04590923
#	Creating user name:	WinNT
#	Creation time:	15. 06. 2019 20:51

#	Modifying user name:	WinNT
#	Modification time:	15. 06. 2019 20:51

#	Program:	/corina/corina34_cracker 3.40 0067  02.08.2006

@<TRIPOS>MOLECULE
ASD04590923
  62   67    0    0    0
SMALL
NO_CHARGES


@<TRIPOS>ATOM
   1 N1            -2.3382    -2.7737    -0.7542 N.ar    
   2 C2            -1.1630    -2.1661    -0.8560 C.ar    
   3 N3            -0.0197    -2.7969    -0.6422 N.ar    
   4 C4            -0.0088    -4.0848    -0.3115 C.ar    
   5 C5            -1.2411    -4.7589    -0.1948 C.ar    
   6 C6            -2.4172    -4.0537    -0.4296 C.ar    
   7 N7             1.0001    -4.9747    -0.0374 N.pl3   
   8 C8             0.4777    -6.2219     0.2586 C.ar    
   9 C9            -0.9240    -6.1442     0.1749 C.ar    
  10 C10            1.0543    -7.4393     0.5966 C.ar    
  11 N11            0.3020    -8.4948     0.8322 N.ar    
  12 C12           -1.0169    -8.4553     0.7620 C.ar    
  13 C13           -1.6759    -7.2894     0.4347 C.ar    
  14 N14           -1.1320    -0.8244    -1.1986 N.pl3   
  15 C15           -2.3131    -0.1635    -1.5376 C.ar    
  16 N16           -3.4468    -0.8384    -1.6315 N.ar    
  17 N17           -4.5562    -0.2718    -1.9403 N.ar    
  18 C18           -4.6404     1.0256    -2.1856 C.ar    
  19 C19           -3.4967     1.8223    -2.1114 C.ar    
  20 C20           -2.3019     1.2121    -1.7728 C.ar    
  21 N21           -5.8677     1.5952    -2.5177 N.3     
  22 C22            2.4286    -4.6500    -0.0560 C.3     
  23 C23           -6.2016     2.6954    -1.6042 C.3     
  24 C24           -6.9299     0.5814    -2.5386 C.3     
  25 C25           -8.2286     1.2119    -3.0464 C.3     
  26 C26           -8.6216     2.3709    -2.1262 C.3     
  27 C27           -7.4786     3.3889    -2.0841 C.3     
  28 C28            2.7861    -3.4980    -1.0099 C.3     
  29 C29            2.8659    -3.7284     1.0947 C.3     
  30 C30            2.5307    -2.5460     0.1704 C.3     
  31 N31           -9.8359     3.0171    -2.6417 N.3     
  32 C32          -10.3098     4.0583    -1.7203 C.3     
  33 C33           -9.6100     3.5663    -3.9854 C.3     
  34 H34           -3.3770    -4.5423    -0.3484 H       
  35 H35            2.1289    -7.5215     0.6666 H       
  36 H36           -1.5873    -9.3498     0.9646 H       
  37 H37           -2.7542    -7.2639     0.3790 H       
  38 H38           -0.2892    -0.3443    -1.2029 H       
  39 H39           -3.5436     2.8832    -2.3082 H       
  40 H40           -1.3870     1.7815    -1.7011 H       
  41 H41            3.0610    -5.5298    -0.1753 H       
  42 H42           -6.3585     2.2994    -0.6008 H       
  43 H43           -5.3825     3.4143    -1.5867 H       
  44 H44           -6.6397    -0.2350    -3.1999 H       
  45 H45           -7.0834     0.1954    -1.5309 H       
  46 H46           -8.0798     1.5859    -4.0594 H       
  47 H47           -9.0207     0.4630    -3.0471 H       
  48 H48           -8.8083     1.9912    -1.1217 H       
  49 H49           -7.7348     4.1955    -1.3972 H       
  50 H50           -7.3180     3.7972    -3.0819 H       
  51 H51            3.8240    -3.5127    -1.3424 H       
  52 H52            2.0793    -3.3754    -1.8306 H       
  53 H53            2.2236    -3.7918     1.9731 H       
  54 H54            3.9257    -3.8060     1.3376 H       
  55 H55            3.2465    -1.7263     0.2330 H       
  56 H56            1.4958    -2.2122     0.2462 H       
  57 H57           -9.5355     4.8158    -1.5987 H       
  58 H58          -11.2097     4.5205    -2.1261 H       
  59 H59          -10.5359     3.6113    -0.7522 H       
  60 H60           -9.3274     2.7615    -4.6640 H       
  61 H61          -10.5247     4.0389    -4.3432 H       
  62 H62           -8.8104     4.3059    -3.9459 H       
@<TRIPOS>BOND
   1    1    2 ar
   2    1    6 ar
   3    2    3 ar
   4    2   14 1
   5    3    4 ar
   6    4    5 ar
   7    4    7 1
   8    5    6 ar
   9    5    9 1
  10    6   34 1
  11    7    8 1
  12    7   22 1
  13    8    9 ar
  14    8   10 ar
  15    9   13 ar
  16   10   11 ar
  17   10   35 1
  18   11   12 ar
  19   12   13 ar
  20   12   36 1
  21   13   37 1
  22   14   15 1
  23   14   38 1
  24   15   16 ar
  25   15   20 ar
  26   16   17 ar
  27   17   18 ar
  28   18   19 ar
  29   18   21 1
  30   19   20 ar
  31   19   39 1
  32   20   40 1
  33   21   24 1
  34   21   23 1
  35   22   29 1
  36   22   28 1
  37   22   41 1
  38   23   27 1
  39   23   42 1
  40   23   43 1
  41   24   25 1
  42   24   44 1
  43   24   45 1
  44   25   26 1
  45   25   46 1
  46   25   47 1
  47   26   27 1
  48   26   31 1
  49   26   48 1
  50   27   49 1
  51   27   50 1
  52   28   30 1
  53   28   51 1
  54   28   52 1
  55   29   30 1
  56   29   53 1
  57   29   54 1
  58   30   55 1
  59   30   56 1
  60   31   32 1
  61   31   33 1
  62   32   57 1
  63   32   58 1
  64   32   59 1
  65   33   60 1
  66   33   61 1
  67   33   62 1

#	End of record

