#	Name: ASD01913775
#	Creating user name:	WinNT
#	Creation time:	15. 06. 2019 20:02

#	Modifying user name:	WinNT
#	Modification time:	15. 06. 2019 20:02

#	Program:	/corina/corina34_cracker 3.40 0067  02.08.2006

@<TRIPOS>MOLECULE
ASD01913775
  38   40    0    0    0
SMALL
NO_CHARGES


@<TRIPOS>ATOM
   1 C1            -0.0166     1.3796     0.0139 C.ar    
   2 C2             0.0021    -0.0041     0.0005 C.ar    
   3 C3             1.2058    -0.6864    -0.0203 C.ar    
   4 C4             2.3966     0.0092    -0.0273 C.ar    
   5 C5             2.3857     1.4065    -0.0138 C.ar    
   6 C6             1.1662     2.0887     0.0068 C.ar    
   7 C7             3.6180     2.1358    -0.0204 C.1     
   8 C8             4.6284     2.7337    -0.0259 C.1     
   9 C9             5.8608     3.4629    -0.0326 C.ar    
  10 C10            5.8579     4.8659    -0.0191 C.ar    
  11 C11            8.2507     4.7793    -0.0465 C.ar    
  12 N12            8.2187     3.4557    -0.0530 N.ar    
  13 C13            7.0832     2.7883    -0.0468 C.ar    
  14 C14            7.0729     5.5244    -0.0263 C.ar    
  15 F15            7.1186     6.8746    -0.0143 F       
  16 N16            9.4797     5.4370    -0.0535 N.am    
  17 C17           10.6799     4.8466     0.0277 C.2     
  18 O18           11.7072     5.7030    -0.0006 O.3     
  19 C19           11.2014     7.0647    -0.1148 C.3     
  20 C20            9.6709     6.8917    -0.1578 C.3     
  21 C21           11.6182     7.8953     1.1006 C.3     
  22 C22           11.6994     7.7152    -1.4070 C.3     
  23 O23           10.8221     3.6433     0.1191 O.2     
  24 H24           -0.9599     1.9054     0.0256 H       
  25 H25           -0.9274    -0.5541     0.0066 H       
  26 H26            1.2127    -1.7664    -0.0307 H       
  27 H27            3.3353    -0.5247    -0.0428 H       
  28 H28            1.1501     3.1685     0.0173 H       
  29 H29            4.9295     5.4174    -0.0039 H       
  30 H30            7.0979     1.7084    -0.0523 H       
  31 H31            9.2691     7.2695    -1.0979 H       
  32 H32            9.2047     7.3955     0.6890 H       
  33 H33           12.7059     7.9475     1.1493 H       
  34 H34           11.2098     8.9018     1.0101 H       
  35 H35           11.2359     7.4283     2.0083 H       
  36 H36           11.3740     7.1216    -2.2613 H       
  37 H37           11.2907     8.7224    -1.4876 H       
  38 H38           12.7881     7.7649    -1.3926 H       
@<TRIPOS>BOND
   1    1    2 ar
   2    1    6 ar
   3    1   24 1
   4    2    3 ar
   5    2   25 1
   6    3    4 ar
   7    3   26 1
   8    4    5 ar
   9    4   27 1
  10    5    6 ar
  11    5    7 1
  12    6   28 1
  13    7    8 3
  14    8    9 1
  15    9   10 ar
  16    9   13 ar
  17   10   14 ar
  18   10   29 1
  19   11   12 ar
  20   11   16 1
  21   11   14 ar
  22   12   13 ar
  23   13   30 1
  24   14   15 1
  25   16   17 am
  26   16   20 1
  27   17   18 1
  28   17   23 2
  29   18   19 1
  30   19   20 1
  31   19   21 1
  32   19   22 1
  33   20   31 1
  34   20   32 1
  35   21   33 1
  36   21   34 1
  37   21   35 1
  38   22   36 1
  39   22   37 1
  40   22   38 1

#	End of record

