#	Name: ASD00069292
#	Creating user name:	WinNT
#	Creation time:	15. 06. 2019 18:29

#	Modifying user name:	WinNT
#	Modification time:	15. 06. 2019 18:29

#	Program:	/corina/corina34_cracker 3.40 0067  02.08.2006

@<TRIPOS>MOLECULE
ASD00069292
 138  142    0    0    0
SMALL
NO_CHARGES


@<TRIPOS>ATOM
   1 C1            -0.2353     1.2685    -0.2212 C.2     
   2 N2            -0.1768    -0.0780    -0.2191 N.am    
   3 O3             0.7872     1.9212    -0.1508 O.2     
   4 O4            -1.4264     1.8904    -0.3067 O.3     
   5 C5            -1.4096    -0.8649    -0.3039 C.3     
   6 N6             2.6329    -3.2119    -0.0290 N.3     
   7 C7             2.4879    -2.3836     1.1749 C.3     
   8 C8             1.1554    -1.6328     1.1217 C.3     
   9 C9             1.1197    -0.7546    -0.1322 C.3     
  10 C10            1.3212    -1.6353    -1.3684 C.3     
  11 C11            2.6489    -2.3860    -1.2430 C.3     
  12 C12            3.7778    -4.0124     0.0481 C.ar    
  13 C13            3.6619    -5.4025    -0.0028 C.ar    
  14 C14            4.7960    -6.1934     0.0736 C.ar    
  15 C15            6.0494    -5.5990     0.2009 C.ar    
  16 C16            6.1595    -4.2114     0.2512 C.ar    
  17 C17            5.0283    -3.4240     0.1692 C.ar    
  18 C18            2.1969    -7.2503     0.3207 C.2     
  19 O19            3.1261    -7.8923     0.7724 O.2     
  20 N20            2.4002    -5.9966    -0.1303 N.am    
  21 C21            0.8491    -7.8431     0.2668 C.2     
  22 N22           -0.2320    -7.2534    -0.1972 N.2     
  23 C23           -1.2680    -8.0923    -0.0873 C.2     
  24 C24           -0.8147    -9.2548     0.4686 C.2     
  25 N25            0.5127    -9.1001     0.6847 N.pl3   
  26 N26           -4.4370    -6.8237    -1.3298 N.pl3   
  27 N27           -4.8328    -8.0549    -0.7931 N.2     
  28 C28           -3.7800    -8.6479    -0.2948 C.2     
  29 C29           -2.6677    -7.8090    -0.4979 C.2     
  30 C30           -3.1078    -6.6896    -1.1402 C.2     
  31 C31           -5.3133    -5.8521    -1.9888 C.3     
  32 O32           -4.5444    -4.7208    -2.4023 O.3     
  33 C33           -5.3083    -3.7078    -3.0598 C.3     
  34 C34           -4.3880    -2.5515    -3.4558 C.3     
  35 Si35          -5.3838    -1.2307    -4.3130 Si      
  36 C36           -6.7070    -0.6046    -3.1606 C.3     
  37 C37           -4.2632     0.1772    -4.7953 C.3     
  38 C38           -6.1772    -1.9441    -5.8402 C.3     
  39 C39            1.4198   -10.0945     1.2631 C.3     
  40 O40            0.6893   -11.2834     1.5714 O.3     
  41 C41            1.4855   -12.3228     2.1439 C.3     
  42 C42            0.6046   -13.5403     2.4315 C.3     
  43 Si43           1.6426   -14.8954     3.1778 Si      
  44 C44            2.4041   -14.2906     4.7669 C.3     
  45 C45            0.5700   -16.3778     3.5280 C.3     
  46 C46            2.9916   -15.3728     1.9849 C.3     
  47 N47            9.3560    -7.0804     0.4498 N.pl3   
  48 N48            8.5564    -8.2250     0.3455 N.2     
  49 C49            7.3079    -7.8516     0.2460 C.2     
  50 C50            7.2676    -6.4444     0.2836 C.2     
  51 C51            8.5507    -5.9989     0.4102 C.2     
  52 C52           10.8146    -7.0609     0.5849 C.3     
  53 O53           11.2677    -5.7079     0.6633 O.3     
  54 C54           12.6842    -5.5761     0.7975 C.3     
  55 C55           13.0537    -4.0932     0.8718 C.3     
  56 Si56          14.9005    -3.9214     1.0468 Si      
  57 C57           15.7386    -4.6973    -0.4250 C.3     
  58 C58           15.3504    -2.1158     1.1372 C.3     
  59 C59           15.4593    -4.7793     2.6033 C.3     
  60 C60           -1.4137     3.3424    -0.3034 C.3     
  61 C61           -0.5994     3.8480    -1.4959 C.3     
  62 C62           -2.8479     3.8652    -0.4067 C.3     
  63 C63           -0.7805     3.8438     0.9960 C.3     
  64 H64           -1.6457    -1.0586    -1.3503 H       
  65 H65           -1.2731    -1.8115     0.2190 H       
  66 H66           -2.2271    -0.3101     0.1564 H       
  67 H67            2.5107    -3.0207     2.0590 H       
  68 H68            3.3072    -1.6663     1.2230 H       
  69 H69            0.3349    -2.3496     1.0875 H       
  70 H70            1.0552    -1.0061     2.0079 H       
  71 H71            1.9155    -0.0117    -0.0794 H       
  72 H72            0.5033    -2.3521    -1.4418 H       
  73 H73            1.3394    -1.0104    -2.2613 H       
  74 H74            3.4674    -1.6688    -1.1836 H       
  75 H75            2.7886    -3.0249    -2.1151 H       
  76 H76            4.7089    -7.2692     0.0349 H       
  77 H77            7.1314    -3.7507     0.3499 H       
  78 H78            5.1167    -2.3481     0.2036 H       
  79 H79            1.6725    -5.5058    -0.5434 H       
  80 H80           -1.4031   -10.1330     0.6897 H       
  81 H81           -3.7659    -9.6133     0.1891 H       
  82 H82           -2.5021    -5.8481    -1.4427 H       
  83 H83           -5.7776    -6.3140    -2.8601 H       
  84 H84           -6.0876    -5.5302    -1.2923 H       
  85 H85           -5.7725    -4.1252    -3.9533 H       
  86 H86           -6.0824    -3.3414    -2.3855 H       
  87 H87           -3.9238    -2.1341    -2.5623 H       
  88 H88           -3.6138    -2.9178    -4.1301 H       
  89 H89           -6.2428    -0.1872    -2.2671 H       
  90 H90           -7.2896     0.1682    -3.6621 H       
  91 H91           -7.3626    -1.4283    -2.8784 H       
  92 H92           -3.4890    -0.1892    -5.4695 H       
  93 H93           -4.8458     0.9499    -5.2968 H       
  94 H94           -3.7990     0.5946    -3.9018 H       
  95 H95           -6.8328    -2.7679    -5.5580 H       
  96 H96           -6.7598    -1.1714    -6.3417 H       
  97 H97           -5.4030    -2.3105    -6.5144 H       
  98 H98            2.2077   -10.3276     0.5469 H       
  99 H99            1.8640    -9.6944     2.1746 H       
 100 H100           2.2747   -12.6021     1.4459 H       
 101 H101           1.9310   -11.9689     3.0736 H       
 102 H102          -0.1847   -13.2609     3.1294 H       
 103 H103           0.1590   -13.8941     1.5018 H       
 104 H104           1.6149   -14.0112     5.4648 H       
 105 H105           3.0114   -15.0834     5.2035 H       
 106 H106           3.0317   -13.4232     4.5620 H       
 107 H107           0.1244   -16.7317     2.5983 H       
 108 H108           1.1773   -17.1707     3.9647 H       
 109 H109          -0.2193   -16.0985     4.2260 H       
 110 H110           3.6191   -14.5055     1.7800 H       
 111 H111           3.5989   -16.1657     2.4216 H       
 112 H112           2.5460   -15.7267     1.0552 H       
 113 H113           6.4555    -8.5079     0.1510 H       
 114 H114           8.8649    -4.9673     0.4682 H       
 115 H115          11.1028    -7.5936     1.4911 H       
 116 H116          11.2662    -7.5456    -0.2807 H       
 117 H117          13.0111    -6.0780     1.7082 H       
 118 H118          13.1746    -6.0300    -0.0636 H       
 119 H119          12.7268    -3.5913    -0.0389 H       
 120 H120          12.5633    -3.6393     1.7329 H       
 121 H121          15.4117    -4.1954    -1.3357 H       
 122 H122          16.8191    -4.5968    -0.3226 H       
 123 H123          15.4754    -5.7537    -0.4779 H       
 124 H124          14.8600    -1.6619     1.9983 H       
 125 H125          16.4309    -2.0153     1.2396 H       
 126 H126          15.0235    -1.6139     0.2265 H       
 127 H127          15.1960    -5.8357     2.5504 H       
 128 H128          16.5398    -4.6788     2.7057 H       
 129 H129          14.9689    -4.3253     3.4644 H       
 130 H130          -1.0505     3.4907    -2.4216 H       
 131 H131          -0.5898     4.9379    -1.4934 H       
 132 H132           0.4224     3.4755    -1.4222 H       
 133 H133          -3.4280     3.5049     0.4428 H       
 134 H134          -2.8383     4.9551    -0.4042 H       
 135 H135          -3.2990     3.5079    -1.3324 H       
 136 H136           0.2413     3.4714     1.0697 H       
 137 H137          -0.7709     4.9338     0.9985 H       
 138 H138          -1.3606     3.4836     1.8456 H       
@<TRIPOS>BOND
   1    1    2 am
   2    1    3 2
   3    1    4 1
   4    2    5 1
   5    2    9 1
   6    4   60 1
   7    5   64 1
   8    5   65 1
   9    5   66 1
  10    6    7 1
  11    6   11 1
  12    6   12 1
  13    7    8 1
  14    7   67 1
  15    7   68 1
  16    8    9 1
  17    8   69 1
  18    8   70 1
  19    9   10 1
  20    9   71 1
  21   10   11 1
  22   10   72 1
  23   10   73 1
  24   11   74 1
  25   11   75 1
  26   12   13 ar
  27   12   17 ar
  28   13   14 ar
  29   13   20 1
  30   14   15 ar
  31   14   76 1
  32   15   16 ar
  33   15   50 1
  34   16   17 ar
  35   16   77 1
  36   17   78 1
  37   18   19 2
  38   18   20 am
  39   18   21 1
  40   20   79 1
  41   21   22 2
  42   21   25 1
  43   22   23 1
  44   23   24 2
  45   23   29 1
  46   24   25 1
  47   24   80 1
  48   25   39 1
  49   26   27 1
  50   26   30 1
  51   26   31 1
  52   27   28 2
  53   28   29 1
  54   28   81 1
  55   29   30 2
  56   30   82 1
  57   31   32 1
  58   31   83 1
  59   31   84 1
  60   32   33 1
  61   33   34 1
  62   33   85 1
  63   33   86 1
  64   34   35 1
  65   34   87 1
  66   34   88 1
  67   35   36 1
  68   35   37 1
  69   35   38 1
  70   36   89 1
  71   36   90 1
  72   36   91 1
  73   37   92 1
  74   37   93 1
  75   37   94 1
  76   38   95 1
  77   38   96 1
  78   38   97 1
  79   39   40 1
  80   39   98 1
  81   39   99 1
  82   40   41 1
  83   41   42 1
  84   41  100 1
  85   41  101 1
  86   42   43 1
  87   42  102 1
  88   42  103 1
  89   43   44 1
  90   43   45 1
  91   43   46 1
  92   44  104 1
  93   44  105 1
  94   44  106 1
  95   45  107 1
  96   45  108 1
  97   45  109 1
  98   46  110 1
  99   46  111 1
 100   46  112 1
 101   47   48 1
 102   47   51 1
 103   47   52 1
 104   48   49 2
 105   49   50 1
 106   49  113 1
 107   50   51 2
 108   51  114 1
 109   52   53 1
 110   52  115 1
 111   52  116 1
 112   53   54 1
 113   54   55 1
 114   54  117 1
 115   54  118 1
 116   55   56 1
 117   55  119 1
 118   55  120 1
 119   56   57 1
 120   56   58 1
 121   56   59 1
 122   57  121 1
 123   57  122 1
 124   57  123 1
 125   58  124 1
 126   58  125 1
 127   58  126 1
 128   59  127 1
 129   59  128 1
 130   59  129 1
 131   60   61 1
 132   60   63 1
 133   60   62 1
 134   61  130 1
 135   61  131 1
 136   61  132 1
 137   62  133 1
 138   62  134 1
 139   62  135 1
 140   63  136 1
 141   63  137 1
 142   63  138 1

#	End of record

