#	Name: ASD01230235
#	Creating user name:	WinNT
#	Creation time:	15. 06. 2019 19:12

#	Modifying user name:	WinNT
#	Modification time:	15. 06. 2019 19:12

#	Program:	/corina/corina34_cracker 3.40 0067  02.08.2006

@<TRIPOS>MOLECULE
ASD01230235
  41   44    0    0    0
SMALL
NO_CHARGES


@<TRIPOS>ATOM
   1 S1             0.0804     1.7746     1.3211 S.o2    
   2 N2            -0.1041     0.2588     0.6837 N.am    
   3 C3             0.6434    -0.1827    -0.2986 C.2     
   4 N4             1.6417     0.5184    -0.9127 N.pl3   
   5 C5             1.9786     1.9091    -0.5972 C.3     
   6 C6             1.8050     2.1788     0.9000 C.3     
   7 C7             0.3597    -1.5590    -0.7584 C.2     
   8 C8             1.1316    -2.1038    -1.7614 C.2     
   9 C9             2.1627    -1.3350    -2.3188 C.2     
  10 C10            2.3919    -0.0807    -1.8939 C.2     
  11 C11           -0.7393    -2.3418    -0.1488 C.ar    
  12 C12           -0.4542    -3.4972     0.5799 C.ar    
  13 C13           -1.4801    -4.2234     1.1466 C.ar    
  14 C14           -2.7957    -3.8064     0.9926 C.ar    
  15 C15           -3.0832    -2.6573     0.2678 C.ar    
  16 C16           -2.0620    -1.9227    -0.2965 C.ar    
  17 O17           -3.8043    -4.5248     1.5521 O.3     
  18 C18           -4.3863    -5.4977     0.8031 C.ar    
  19 C19           -3.8784    -5.8068    -0.4506 C.ar    
  20 C20           -4.4725    -6.7970    -1.2105 C.ar    
  21 C21           -5.5732    -7.4790    -0.7214 C.ar    
  22 C22           -6.0803    -7.1721     0.5274 C.ar    
  23 C23           -5.4860    -6.1875     1.2931 C.ar    
  24 Cl24          -3.8382    -7.1849    -2.7792 Cl      
  25 O25           -0.8226     2.5855     0.5820 O.2     
  26 O26           -0.0675     1.5936     2.7227 O.2     
  27 H27            3.0139     2.1010    -0.8793 H       
  28 H28            1.3241     2.5742    -1.1605 H       
  29 H29            2.0032     3.2291     1.1137 H       
  30 H30            2.4848     1.5476     1.4723 H       
  31 H31            0.9453    -3.1080    -2.1125 H       
  32 H32            2.7804    -1.7557    -3.0985 H       
  33 H33            3.1989     0.4790    -2.3433 H       
  34 H34            0.5687    -3.8224     0.6994 H       
  35 H35           -1.2603    -5.1177     1.7107 H       
  36 H36           -4.1076    -2.3364     0.1494 H       
  37 H37           -2.2859    -1.0265    -0.8561 H       
  38 H38           -3.0200    -5.2742    -0.8325 H       
  39 H39           -6.0367    -8.2519    -1.3165 H       
  40 H40           -6.9394    -7.7055     0.9066 H       
  41 H41           -5.8802    -5.9515     2.2705 H       
@<TRIPOS>BOND
   1    1    2 am
   2    1    6 1
   3    1   25 2
   4    1   26 2
   5    2    3 2
   6    3    4 1
   7    3    7 1
   8    4    5 1
   9    4   10 1
  10    5    6 1
  11    5   27 1
  12    5   28 1
  13    6   29 1
  14    6   30 1
  15    7    8 2
  16    7   11 1
  17    8    9 1
  18    8   31 1
  19    9   10 2
  20    9   32 1
  21   10   33 1
  22   11   12 ar
  23   11   16 ar
  24   12   13 ar
  25   12   34 1
  26   13   14 ar
  27   13   35 1
  28   14   15 ar
  29   14   17 1
  30   15   16 ar
  31   15   36 1
  32   16   37 1
  33   17   18 1
  34   18   19 ar
  35   18   23 ar
  36   19   20 ar
  37   19   38 1
  38   20   21 ar
  39   20   24 1
  40   21   22 ar
  41   21   39 1
  42   22   23 ar
  43   22   40 1
  44   23   41 1

#	End of record

