#	Name: ASD01814553
#	Creating user name:	WinNT
#	Creation time:	15. 06. 2019 19:32

#	Modifying user name:	WinNT
#	Modification time:	15. 06. 2019 19:32

#	Program:	/corina/corina34_cracker 3.40 0067  02.08.2006

@<TRIPOS>MOLECULE
ASD01814553
  59   62    0    0    0
SMALL
NO_CHARGES


@<TRIPOS>ATOM
   1 C1            -0.0168     1.3882     0.0097 C.ar    
   2 C2             0.0021    -0.0041     0.0020 C.ar    
   3 C3             1.1795    -0.6891    -0.0124 C.ar    
   4 C4             2.3944     0.0147    -0.0202 C.ar    
   5 C5             2.3745     1.4312    -0.0129 C.ar    
   6 C6             1.1424     2.1038     0.0024 C.ar    
   7 C7             3.6273    -0.6667    -0.0345 C.ar    
   8 C8             4.7911     0.0287    -0.0410 C.ar    
   9 C9             4.7929     1.4362    -0.0341 C.ar    
  10 C10            3.5923     2.1420    -0.0203 C.ar    
  11 O11            3.5945     3.4965    -0.0140 O.3     
  12 C12            3.5844     4.1511    -1.2841 C.3     
  13 C13            6.0721     2.1670    -0.0414 C.2     
  14 O14            6.0777     3.3832    -0.0354 O.2     
  15 N15            7.2362     1.4879    -0.0548 N.am    
  16 C16            3.6526    -2.1735    -0.0423 C.3     
  17 C17            3.5246    -2.6708    -1.4591 C.ar    
  18 C18            4.6483    -2.8839    -2.2387 C.ar    
  19 C19            2.2777    -2.9311    -2.0100 C.ar    
  20 C20            2.1957    -3.3863    -3.3111 C.ar    
  21 N21            3.2848    -3.5751    -4.0314 N.ar    
  22 C22            4.4908    -3.3432    -3.5399 C.ar    
  23 C23            8.5082     2.2146    -0.0621 C.3     
  24 C24            8.9010     2.5696     1.3734 C.3     
  25 C25            9.5942     1.3354    -0.6854 C.3     
  26 C26           10.9227     2.0944    -0.6931 C.3     
  27 C27           11.3155     2.4494     0.7424 C.3     
  28 C28           10.2295     3.3285     1.3658 C.3     
  29 O29            9.2274     1.0039    -2.0261 O.3     
  30 O30            5.5840    -3.5509    -4.3160 O.3     
  31 C31            5.3554    -4.0183    -5.6469 C.3     
  32 H32           -0.9635     1.9079     0.0170 H       
  33 H33           -0.9304    -0.5489     0.0080 H       
  34 H34            1.1785    -1.7691    -0.0175 H       
  35 H35            1.1136     3.1834     0.0085 H       
  36 H36            5.7301    -0.5049    -0.0514 H       
  37 H37            3.5874     5.2311    -1.1363 H       
  38 H38            4.4690     3.8595    -1.8503 H       
  39 H39            2.6891     3.8623    -1.8347 H       
  40 H40            7.2317     0.5179    -0.0596 H       
  41 H41            4.5938    -2.5232     0.3819 H       
  42 H42            2.8223    -2.5539     0.5527 H       
  43 H43            5.6344    -2.6952    -1.8406 H       
  44 H44            1.3811    -2.7795    -1.4272 H       
  45 H45            1.2278    -3.5907    -3.7445 H       
  46 H46            8.4011     3.1287    -0.6461 H       
  47 H47            8.1273     3.1959     1.8175 H       
  48 H48            9.0081     1.6555     1.9574 H       
  49 H49            9.7014     0.4214    -0.1014 H       
  50 H50           11.6964     1.4681    -1.1371 H       
  51 H51           10.8156     3.0085    -1.2771 H       
  52 H52           11.4226     1.5353     1.3264 H       
  53 H53           12.2619     2.9901     0.7370 H       
  54 H54           10.1223     4.2426     0.7818 H       
  55 H55           10.5093     3.5815     2.3884 H       
  56 H56            9.8717     0.4467    -2.4839 H       
  57 H57            6.3104    -4.1425    -6.1575 H       
  58 H58            4.8352    -4.9755    -5.6115 H       
  59 H59            4.7463    -3.2935    -6.1870 H       
@<TRIPOS>BOND
   1    1    2 ar
   2    1    6 ar
   3    1   32 1
   4    2    3 ar
   5    2   33 1
   6    3    4 ar
   7    3   34 1
   8    4    5 ar
   9    4    7 ar
  10    5    6 ar
  11    5   10 ar
  12    6   35 1
  13    7    8 ar
  14    7   16 1
  15    8    9 ar
  16    8   36 1
  17    9   10 ar
  18    9   13 1
  19   10   11 1
  20   11   12 1
  21   12   37 1
  22   12   38 1
  23   12   39 1
  24   13   14 2
  25   13   15 am
  26   15   23 1
  27   15   40 1
  28   16   17 1
  29   16   41 1
  30   16   42 1
  31   17   18 ar
  32   17   19 ar
  33   18   22 ar
  34   18   43 1
  35   19   20 ar
  36   19   44 1
  37   20   21 ar
  38   20   45 1
  39   21   22 ar
  40   22   30 1
  41   23   24 1
  42   23   25 1
  43   23   46 1
  44   24   28 1
  45   24   47 1
  46   24   48 1
  47   25   26 1
  48   25   29 1
  49   25   49 1
  50   26   27 1
  51   26   50 1
  52   26   51 1
  53   27   28 1
  54   27   52 1
  55   27   53 1
  56   28   54 1
  57   28   55 1
  58   29   56 1
  59   30   31 1
  60   31   57 1
  61   31   58 1
  62   31   59 1

#	End of record

