#	Name: ASD05430032
#	Creating user name:	WinNT
#	Creation time:	15. 06. 2019 20:59

#	Modifying user name:	WinNT
#	Modification time:	15. 06. 2019 20:59

#	Program:	/corina/corina34_cracker 3.40 0067  02.08.2006

@<TRIPOS>MOLECULE
ASD05430032
  73   79    0    0    0
SMALL
NO_CHARGES


@<TRIPOS>ATOM
   1 C1             0.0553     1.1854     0.3898 C.ar    
   2 C2             0.0200    -0.0134    -0.3217 C.ar    
   3 C3             1.1705    -0.4971    -0.9314 C.ar    
   4 C4             2.3522     0.2050    -0.8357 C.ar    
   5 C5             2.3950     1.4081    -0.1237 C.ar    
   6 C6             1.2369     1.8952     0.4896 C.ar    
   7 C7             4.8637    -0.0031     0.2167 C.3     
   8 C8             4.8270     1.5012     0.0670 C.2     
   9 C9             3.6566     2.1597    -0.0203 C.2     
  10 C10            6.2035    -0.4404     0.7994 C.3     
  11 C11            6.8758     0.5992     1.6937 C.3     
  12 N12            7.0932     1.8220     0.9205 N.pl3   
  13 C13            6.1094     2.2253     0.0200 C.2     
  14 N14           -1.1789    -0.7321    -0.4215 N.pl3   
  15 C15           -2.0017    -1.0763     0.6031 C.2     
  16 C16           -1.7460    -1.2154    -1.5723 C.2     
  17 C17           -2.8845    -1.8391    -1.2140 C.2     
  18 N18           -3.0158    -1.7390     0.1171 N.2     
  19 C19           -3.8472    -2.5264    -2.1477 C.3     
  20 C20           -0.9651     2.8925     1.6933 C.3     
  21 O21           -1.0740     1.6587     0.9806 O.3     
  22 C22            8.2969     2.6382     1.0731 C.3     
  23 C23            8.6858     3.1851    -0.3049 C.3     
  24 O24            7.5728     3.8444    -0.9000 O.3     
  25 N25            6.3324     3.1801    -0.8229 N.2     
  26 C26            8.0187     3.7823     2.0137 C.ar    
  27 C27            8.9739     4.1655     2.9367 C.ar    
  28 C28            8.7201     5.2149     3.7994 C.ar    
  29 C29            7.5086     5.8825     3.7391 C.ar    
  30 C30            6.5527     5.4978     2.8142 C.ar    
  31 C31            6.8108     4.4516     1.9490 C.ar    
  32 F32            7.2593     6.9082     4.5823 F       
  33 C33            9.8458     4.1729    -0.1470 C.3     
  34 C34           10.2948     4.6467    -1.5318 C.3     
  35 O35           10.6697     3.5167    -2.3221 O.3     
  36 C36            9.6112     2.5824    -2.5433 C.3     
  37 C37            9.1352     2.0254    -1.1991 C.3     
  38 C38            6.1660    -1.8442     1.4256 C.3     
  39 O39            7.4247    -2.0521     0.7527 O.3     
  40 C40            7.1541    -1.0469    -0.2457 C.3     
  41 H41            1.1389    -1.4259    -1.4815 H       
  42 H42            3.2454    -0.1738    -1.3102 H       
  43 H43            1.2656     2.8240     1.0401 H       
  44 H44            4.0600    -0.3197     0.8815 H       
  45 H45            4.7259    -0.4669    -0.7600 H       
  46 H46            3.6429     3.2396    -0.0145 H       
  47 H47            6.2333     0.8166     2.5470 H       
  48 H48            7.8333     0.2143     2.0446 H       
  49 H49           -1.8431    -0.8414     1.6452 H       
  50 H50           -1.3550    -1.1148    -2.5740 H       
  51 H51           -3.5613    -3.5724    -2.2589 H       
  52 H52           -4.8556    -2.4670    -1.7383 H       
  53 H53           -3.8209    -2.0371    -3.1214 H       
  54 H54           -0.6398     3.6783     1.0116 H       
  55 H55           -1.9354     3.1556     2.1145 H       
  56 H56           -0.2371     2.7846     2.4973 H       
  57 H57            9.1080     2.0263     1.4678 H       
  58 H58            9.9187     3.6443     2.9838 H       
  59 H59            9.4663     5.5138     4.5207 H       
  60 H60            5.6074     6.0179     2.7663 H       
  61 H61            6.0653     4.1514     1.2275 H       
  62 H62            9.5174     5.0291     0.4422 H       
  63 H63           10.6775     3.6804     0.3568 H       
  64 H64            9.4751     5.1750    -2.0187 H       
  65 H65           11.1483     5.3167    -1.4277 H       
  66 H66            8.7823     3.0838    -3.0430 H       
  67 H67            9.9720     1.7654    -3.1681 H       
  68 H68            9.9526     1.4893    -0.7170 H       
  69 H69            8.2987     1.3458    -1.3621 H       
  70 H70            6.2417    -1.8445     2.5130 H       
  71 H71            5.3571    -2.4724     1.0524 H       
  72 H72            6.6487    -1.4302    -1.1321 H       
  73 H73            8.0116    -0.4164    -0.4807 H       
@<TRIPOS>BOND
   1    1    2 ar
   2    1    6 ar
   3    1   21 1
   4    2    3 ar
   5    2   14 1
   6    3    4 ar
   7    3   41 1
   8    4    5 ar
   9    4   42 1
  10    5    6 ar
  11    5    9 1
  12    6   43 1
  13    7    8 1
  14    7   10 1
  15    7   44 1
  16    7   45 1
  17    8    9 2
  18    8   13 1
  19    9   46 1
  20   10   11 1
  21   10   38 1
  22   10   40 1
  23   11   12 1
  24   11   47 1
  25   11   48 1
  26   12   13 1
  27   12   22 1
  28   13   25 2
  29   14   15 1
  30   14   16 1
  31   15   18 2
  32   15   49 1
  33   16   17 2
  34   16   50 1
  35   17   18 1
  36   17   19 1
  37   19   51 1
  38   19   52 1
  39   19   53 1
  40   20   21 1
  41   20   54 1
  42   20   55 1
  43   20   56 1
  44   22   23 1
  45   22   26 1
  46   22   57 1
  47   23   24 1
  48   23   33 1
  49   23   37 1
  50   24   25 1
  51   26   27 ar
  52   26   31 ar
  53   27   28 ar
  54   27   58 1
  55   28   29 ar
  56   28   59 1
  57   29   30 ar
  58   29   32 1
  59   30   31 ar
  60   30   60 1
  61   31   61 1
  62   33   34 1
  63   33   62 1
  64   33   63 1
  65   34   35 1
  66   34   64 1
  67   34   65 1
  68   35   36 1
  69   36   37 1
  70   36   66 1
  71   36   67 1
  72   37   68 1
  73   37   69 1
  74   38   39 1
  75   38   70 1
  76   38   71 1
  77   39   40 1
  78   40   72 1
  79   40   73 1

#	End of record

