#	Name: ASD01883338
#	Creating user name:	WinNT
#	Creation time:	15. 06. 2019 19:46

#	Modifying user name:	WinNT
#	Modification time:	15. 06. 2019 19:46

#	Program:	/corina/corina34_cracker 3.40 0067  02.08.2006

@<TRIPOS>MOLECULE
ASD01883338
  58   60    0    0    0
SMALL
NO_CHARGES


@<TRIPOS>ATOM
   1 N1             0.0038     1.3058     0.0348 N.am    
   2 C2            -0.8400     1.5171    -0.9925 C.2     
   3 C3            -2.0913     0.8553    -1.0252 C.2     
   4 C4            -2.4225    -0.0124     0.0251 C.2     
   5 C5            -1.5011    -0.1924     1.0696 C.2     
   6 C6            -0.3173     0.4608     1.0477 C.2     
   7 O7            -0.5274     2.2772    -1.8932 O.2     
   8 C8            -3.0014     1.0685    -2.1100 C.1     
   9 N9            -3.7233     1.2377    -2.9706 N.1     
  10 O10           -3.6076    -0.6636     0.0325 O.3     
  11 C11            1.2956     1.9964     0.0573 C.3     
  12 C12            1.1459     3.3348     0.7833 C.3     
  13 C13            2.4951     4.0560     0.8068 C.3     
  14 C14            2.3196     5.4463     1.4209 C.3     
  15 C15            3.4896     3.2501     1.6448 C.3     
  16 C16           -3.5664    -2.0870    -0.0870 C.3     
  17 C17           -4.9703    -2.6342    -0.0598 C.ar    
  18 C18           -5.6756    -2.7869    -1.2388 C.ar    
  19 C19           -6.9634    -3.2888    -1.2138 C.ar    
  20 C20           -7.5457    -3.6384    -0.0098 C.ar    
  21 C21           -6.8401    -3.4865     1.1691 C.ar    
  22 C22           -5.5508    -2.9887     1.1437 C.ar    
  23 C23           -8.9500    -4.1846     0.0175 C.3     
  24 N24           -8.9088    -5.6478    -0.1063 N.3     
  25 C25          -10.2310    -6.2359     0.1528 C.3     
  26 C26          -10.1567    -7.7522    -0.0449 C.3     
  27 O27           -9.1471    -8.2909     0.8129 O.3     
  28 C28           -7.8464    -7.7406     0.5874 C.3     
  29 C29           -7.8973    -6.2242     0.7915 C.3     
  30 H30           -1.7364    -0.8560     1.8886 H       
  31 H31            0.3832     0.3140     1.8564 H       
  32 H32            2.0280     1.3801     0.5789 H       
  33 H33            1.6311     2.1729    -0.9646 H       
  34 H34            0.4136     3.9511     0.2617 H       
  35 H35            0.8104     3.1584     1.8052 H       
  36 H36            2.8727     4.1535    -0.2111 H       
  37 H37            1.9419     5.3488     2.4388 H       
  38 H38            3.2808     5.9601     1.4377 H       
  39 H39            1.6110     6.0205     0.8239 H       
  40 H40            3.1120     3.1526     2.6626 H       
  41 H41            3.6146     2.2596     1.2072 H       
  42 H42            4.4508     3.7639     1.6615 H       
  43 H43           -3.0887    -2.3589    -1.0282 H       
  44 H44           -2.9974    -2.5050     0.7434 H       
  45 H45           -5.2206    -2.5138    -2.1794 H       
  46 H46           -7.5147    -3.4074    -2.1349 H       
  47 H47           -7.2952    -3.7593     2.1098 H       
  48 H48           -4.9995    -2.8700     2.0648 H       
  49 H49           -9.4273    -3.9129     0.9590 H       
  50 H50           -9.5190    -3.7656    -0.8124 H       
  51 H51          -10.5325    -6.0167     1.1770 H       
  52 H52          -10.9591    -5.8138    -0.5399 H       
  53 H53          -11.1199    -8.1990     0.2014 H       
  54 H54           -9.9076    -7.9722    -1.0830 H       
  55 H55           -7.1387    -8.1790     1.2910 H       
  56 H56           -7.5301    -7.9602    -0.4323 H       
  57 H57           -6.9219    -5.7935     0.5651 H       
  58 H58           -8.1615    -6.0048     1.8260 H       
@<TRIPOS>BOND
   1    1    2 am
   2    1   11 1
   3    1    6 1
   4    2    3 1
   5    2    7 2
   6    3    4 2
   7    3    8 1
   8    4    5 1
   9    4   10 1
  10    5    6 2
  11    5   30 1
  12    6   31 1
  13    8    9 3
  14   10   16 1
  15   11   12 1
  16   11   32 1
  17   11   33 1
  18   12   13 1
  19   12   34 1
  20   12   35 1
  21   13   14 1
  22   13   15 1
  23   13   36 1
  24   14   37 1
  25   14   38 1
  26   14   39 1
  27   15   40 1
  28   15   41 1
  29   15   42 1
  30   16   17 1
  31   16   43 1
  32   16   44 1
  33   17   18 ar
  34   17   22 ar
  35   18   19 ar
  36   18   45 1
  37   19   20 ar
  38   19   46 1
  39   20   21 ar
  40   20   23 1
  41   21   22 ar
  42   21   47 1
  43   22   48 1
  44   23   24 1
  45   23   49 1
  46   23   50 1
  47   24   25 1
  48   24   29 1
  49   25   26 1
  50   25   51 1
  51   25   52 1
  52   26   27 1
  53   26   53 1
  54   26   54 1
  55   27   28 1
  56   28   29 1
  57   28   55 1
  58   28   56 1
  59   29   57 1
  60   29   58 1

#	End of record

