#	Name: ASD01811703
#	Creating user name:	WinNT
#	Creation time:	15. 06. 2019 19:27

#	Modifying user name:	WinNT
#	Modification time:	15. 06. 2019 19:27

#	Program:	/corina/corina34_cracker 3.40 0067  02.08.2006

@<TRIPOS>MOLECULE
ASD01811703
  54   58    0    0    0
SMALL
NO_CHARGES


@<TRIPOS>ATOM
   1 C1            -0.0167     1.3805     0.0096 C.ar    
   2 C2             0.0021    -0.0041     0.0020 C.ar    
   3 C3            -1.1845    -0.7161     0.0090 C.ar    
   4 C4            -2.3942    -0.0535     0.0241 C.ar    
   5 C5            -2.4213     1.3425     0.0323 C.ar    
   6 C6            -1.2177     2.0512     0.0304 C.ar    
   7 C7             1.2777     2.1522     0.0014 C.3     
   8 C8            -3.5309     2.3149     0.0477 C.2     
   9 N9            -3.0504     3.5703     0.0501 N.am    
  10 C10           -1.5841     3.5142     0.0402 C.3     
  11 O11           -4.7107     2.0226     0.0563 O.2     
  12 C12           -3.8575     4.7928     0.0640 C.3     
  13 C13           -4.7392     4.8280     1.3246 C.3     
  14 C14           -6.2027     4.8624     0.8379 C.3     
  15 C15           -6.1454     4.2461    -0.5819 C.3     
  16 C16           -4.8159     4.8071    -1.1447 C.3     
  17 O17           -4.4506     5.9989     2.0913 O.3     
  18 C18           -1.1549    -2.2228    -0.0004 C.3     
  19 C19           -1.1315    -2.7336     1.4172 C.ar    
  20 C20           -2.3189    -2.9911     2.0776 C.ar    
  21 C21           -2.3007    -3.4597     3.3767 C.ar    
  22 C22           -1.0886    -3.6723     4.0196 C.ar    
  23 C23            0.1019    -3.4128     3.3539 C.ar    
  24 C24            0.0773    -2.9493     2.0531 C.ar    
  25 N25           -1.0668    -4.1474     5.3382 N.pl3   
  26 N26           -2.1863    -4.4492     6.1244 N.2     
  27 C27           -1.7662    -4.8643     7.2923 C.2     
  28 C28           -0.3672    -4.8406     7.2884 C.2     
  29 C29            0.0386    -4.4012     6.0746 C.2     
  30 H30            0.9454    -0.5297    -0.0098 H       
  31 H31           -3.3180    -0.6130     0.0291 H       
  32 H32            1.5800     2.3437    -1.0282 H       
  33 H33            1.1390     3.0999     0.5217 H       
  34 H34            2.0504     1.5710     0.5048 H       
  35 H35           -1.1849     3.9949     0.9333 H       
  36 H36           -1.1966     4.0028    -0.8538 H       
  37 H37           -3.2095     5.6689     0.0371 H       
  38 H38           -4.5666     3.9354     1.9260 H       
  39 H39           -6.8358     4.2605     1.4899 H       
  40 H40           -6.5660     5.8892     0.7938 H       
  41 H41           -6.1141     3.1578    -0.5296 H       
  42 H42           -6.9911     4.5808    -1.1827 H       
  43 H43           -4.9552     5.8249    -1.5091 H       
  44 H44           -4.4370     4.1649    -1.9396 H       
  45 H45           -4.9751     6.0787     2.8999 H       
  46 H46           -2.0425    -2.6005    -0.5080 H       
  47 H47           -0.2629    -2.5654    -0.5248 H       
  48 H48           -3.2614    -2.8252     1.5771 H       
  49 H49           -3.2283    -3.6603     3.8920 H       
  50 H50            1.0463    -3.5769     3.8516 H       
  51 H51            1.0030    -2.7473     1.5348 H       
  52 H52           -2.3917    -5.1719     8.1172 H       
  53 H53            0.2753    -5.1264     8.1080 H       
  54 H54            1.0616    -4.2709     5.7536 H       
@<TRIPOS>BOND
   1    1    2 ar
   2    1    7 1
   3    1    6 ar
   4    2    3 ar
   5    2   30 1
   6    3    4 ar
   7    3   18 1
   8    4    5 ar
   9    4   31 1
  10    5    6 ar
  11    5    8 1
  12    6   10 1
  13    7   32 1
  14    7   33 1
  15    7   34 1
  16    8    9 am
  17    8   11 2
  18    9   10 1
  19    9   12 1
  20   10   35 1
  21   10   36 1
  22   12   13 1
  23   12   16 1
  24   12   37 1
  25   13   14 1
  26   13   17 1
  27   13   38 1
  28   14   15 1
  29   14   39 1
  30   14   40 1
  31   15   16 1
  32   15   41 1
  33   15   42 1
  34   16   43 1
  35   16   44 1
  36   17   45 1
  37   18   19 1
  38   18   46 1
  39   18   47 1
  40   19   20 ar
  41   19   24 ar
  42   20   21 ar
  43   20   48 1
  44   21   22 ar
  45   21   49 1
  46   22   23 ar
  47   22   25 1
  48   23   24 ar
  49   23   50 1
  50   24   51 1
  51   25   26 1
  52   25   29 1
  53   26   27 2
  54   27   28 1
  55   27   52 1
  56   28   29 2
  57   28   53 1
  58   29   54 1

#	End of record

