#	Name: ASD01881380
#	Creating user name:	WinNT
#	Creation time:	15. 06. 2019 19:42

#	Modifying user name:	WinNT
#	Modification time:	15. 06. 2019 19:42

#	Program:	/corina/corina34_cracker 3.40 0067  02.08.2006

@<TRIPOS>MOLECULE
ASD01881380
  56   58    0    0    0
SMALL
NO_CHARGES


@<TRIPOS>ATOM
   1 C1            -0.0167     1.3829     0.0096 C.ar    
   2 C2             0.0021    -0.0041     0.0020 C.ar    
   3 C3             1.1706     2.0945     0.0021 C.ar    
   4 C4             2.3789     1.4290    -0.0134 C.ar    
   5 C5             2.4067     0.0345    -0.0212 C.ar    
   6 C6             1.2116    -0.6814    -0.0135 C.ar    
   7 C7             3.7032    -0.6831    -0.0374 C.2     
   8 C8             4.5747    -0.5888     1.0371 C.2     
   9 C9             4.0696    -1.4798    -1.1457 C.2     
  10 C10            5.2544    -2.1269    -1.1444 C.2     
  11 N11            6.1059    -2.0251    -0.0899 N.am    
  12 C12            5.7941    -1.2819     0.9878 C.2     
  13 C13            7.3830    -2.7421    -0.1246 C.3     
  14 C14            8.4534    -1.8471    -0.7524 C.3     
  15 C15            9.7872    -2.5958    -0.7886 C.3     
  16 C16           10.8576    -1.7009    -1.4165 C.3     
  17 Cl17           4.1636     0.3729     2.4226 Cl      
  18 O18            6.5760    -1.2063     1.9226 O.2     
  19 C19           -1.5238     1.3779     0.0292 C.3     
  20 C20           -2.1691     1.9415    -1.2384 C.3     
  21 C21           -3.6941     1.8861    -1.1051 C.3     
  22 C22           -4.3302     2.5237    -2.3430 C.3     
  23 O23           -3.8625     3.8671    -2.4789 O.3     
  24 O24           -1.3560    -0.0392     0.0148 O.3     
  25 C25           -1.7369     3.3986    -1.4290 C.3     
  26 C26           -2.4486     3.9778    -2.6544 C.3     
  27 H27            1.1509     3.1743     0.0081 H       
  28 H28            3.3031     1.9877    -0.0200 H       
  29 H29            1.2273    -1.7613    -0.0194 H       
  30 H30            3.4036    -1.5709    -1.9910 H       
  31 H31            5.5295    -2.7347    -1.9937 H       
  32 H32            7.6795    -3.0055     0.8907 H       
  33 H33            7.2742    -3.6496    -0.7183 H       
  34 H34            8.1570    -1.5837    -1.7677 H       
  35 H35            8.5622    -0.9395    -0.1587 H       
  36 H36           10.0837    -2.8592     0.2267 H       
  37 H37            9.6784    -3.5034    -1.3824 H       
  38 H38           11.8078    -2.2343    -1.4423 H       
  39 H39           10.5611    -1.4375    -2.4318 H       
  40 H40           10.9664    -0.7933    -0.8227 H       
  41 H41           -1.9599     1.7728     0.9467 H       
  42 H42           -1.8567     1.3515    -2.0999 H       
  43 H43           -4.0152     0.8476    -1.0244 H       
  44 H44           -4.0020     2.4338    -0.2144 H       
  45 H45           -4.0546     1.9515    -3.2289 H       
  46 H46           -5.4148     2.5256    -2.2342 H       
  47 H47           -2.0052     3.9768    -0.5448 H       
  48 H48           -0.6582     3.4418    -1.5800 H       
  49 H49           -2.1484     3.4246    -3.5443 H       
  50 H50           -2.1777     5.0272    -2.7700 H       
  51 C51           17.7504    11.8898     7.4417 C.2     
  52 C52           17.7681    10.5799     7.4345 C.2     
  53 H53           18.6782    12.4424     7.4358 H       
  54 H54           16.8078    12.4170     7.4490 H       
  55 H55           16.8403    10.0272     7.4404 H       
  56 H56           18.7106    10.0527     7.4226 H       
@<TRIPOS>BOND
   1    1    2 ar
   2    1    3 ar
   3    1   19 1
   4    2   24 1
   5    2    6 ar
   6    3    4 ar
   7    3   27 1
   8    4    5 ar
   9    4   28 1
  10    5    6 ar
  11    5    7 1
  12    6   29 1
  13    7    8 2
  14    7    9 1
  15    8   17 1
  16    8   12 1
  17    9   10 2
  18    9   30 1
  19   10   11 1
  20   10   31 1
  21   11   12 am
  22   11   13 1
  23   12   18 2
  24   13   14 1
  25   13   32 1
  26   13   33 1
  27   14   15 1
  28   14   34 1
  29   14   35 1
  30   15   16 1
  31   15   36 1
  32   15   37 1
  33   16   38 1
  34   16   39 1
  35   16   40 1
  36   19   20 1
  37   19   24 1
  38   19   41 1
  39   20   21 1
  40   20   25 1
  41   20   42 1
  42   21   22 1
  43   21   43 1
  44   21   44 1
  45   22   23 1
  46   22   45 1
  47   22   46 1
  48   23   26 1
  49   25   26 1
  50   25   47 1
  51   25   48 1
  52   26   49 1
  53   26   50 1
  54   51   52 2
  55   51   53 1
  56   51   54 1
  57   52   55 1
  58   52   56 1

#	End of record

