#	Name: ASD05130039
#	Creating user name:	WinNT
#	Creation time:	15. 06. 2019 20:56

#	Modifying user name:	WinNT
#	Modification time:	15. 06. 2019 20:56

#	Program:	/corina/corina34_cracker 3.40 0067  02.08.2006

@<TRIPOS>MOLECULE
ASD05130039
  54   57    0    0    0
SMALL
NO_CHARGES


@<TRIPOS>ATOM
   1 N1            -0.1611     1.5503     0.1053 N.am    
   2 C2             0.0484     0.4215     0.8112 C.2     
   3 O3             1.1145     0.2413     1.3675 O.2     
   4 N4            -0.9239    -0.5076     0.9005 N.am    
   5 C5            -0.6715    -1.7249     1.5429 C.ar    
   6 C6            -1.6842    -2.3628     2.2468 C.ar    
   7 C7            -1.4314    -3.5661     2.8802 C.ar    
   8 C8            -0.1694    -4.1335     2.8122 C.ar    
   9 C9             0.8394    -3.4989     2.1121 C.ar    
  10 C10            0.5906    -2.2997     1.4729 C.ar    
  11 F11           -2.4154    -4.1881     3.5659 F       
  12 C12            0.8154     2.5559     0.0854 C.ar    
  13 C13            0.4414     3.8854    -0.0858 C.ar    
  14 C14            1.4018     4.8812    -0.1061 C.ar    
  15 C15            2.7382     4.5603     0.0442 C.ar    
  16 C16            3.1206     3.2285     0.2170 C.ar    
  17 C17            2.1515     2.2266     0.2420 C.ar    
  18 F18            3.6737     5.5348     0.0236 F       
  19 F19           -0.8631     4.2046    -0.2332 F       
  20 N20            6.5398     2.8371     1.7914 N.am    
  21 C21            5.2381     3.1525     1.6437 C.2     
  22 C22            4.5520     2.8817     0.3782 C.2     
  23 C23            5.2415     2.3059    -0.6537 C.2     
  24 C24            6.6078     1.9838    -0.4741 C.ar    
  25 C25            7.3519     1.3941    -1.5033 C.ar    
  26 N26            8.6208     1.1010    -1.3199 N.ar    
  27 C27            9.2454     1.3457    -0.1729 C.ar    
  28 C28            8.5831     1.9282     0.8984 C.ar    
  29 C29            7.2401     2.2578     0.7584 C.ar    
  30 O30            4.6295     3.6650     2.5662 O.2     
  31 N31           10.5858     1.0118    -0.0436 N.pl3   
  32 C32           11.2883     1.2754     1.2146 C.3     
  33 C33            7.2161     3.1181     3.0602 C.3     
  34 C34            7.0798     1.9102     3.9893 C.3     
  35 H35           -0.9858     1.6653    -0.3922 H       
  36 H36           -1.7985    -0.3325     0.5194 H       
  37 H37           -2.6678    -1.9199     2.2998 H       
  38 H38            0.0266    -5.0731     3.3072 H       
  39 H39            1.8224    -3.9433     2.0611 H       
  40 H40            1.3786    -1.8074     0.9223 H       
  41 H41            1.1070     5.9115    -0.2400 H       
  42 H42            2.4424     1.1956     0.3794 H       
  43 H43            4.7496     2.0997    -1.5928 H       
  44 H44            6.8818     1.1786    -2.4514 H       
  45 H45            9.1022     2.1215     1.8255 H       
  46 H46           11.0578     0.6039    -0.7864 H       
  47 H47           11.2612     2.3437     1.4291 H       
  48 H48           10.8019     0.7300     2.0234 H       
  49 H49           12.3245     0.9485     1.1276 H       
  50 H50            8.2717     3.3154     2.8733 H       
  51 H51            6.7609     3.9904     3.5292 H       
  52 H52            7.5350     1.0378     3.5203 H       
  53 H53            7.5830     2.1193     4.9333 H       
  54 H54            6.0242     1.7128     4.1762 H       
@<TRIPOS>BOND
   1    1    2 am
   2    1   12 1
   3    1   35 1
   4    2    3 2
   5    2    4 am
   6    4    5 1
   7    4   36 1
   8    5    6 ar
   9    5   10 ar
  10    6    7 ar
  11    6   37 1
  12    7    8 ar
  13    7   11 1
  14    8    9 ar
  15    8   38 1
  16    9   10 ar
  17    9   39 1
  18   10   40 1
  19   12   13 ar
  20   12   17 ar
  21   13   14 ar
  22   13   19 1
  23   14   15 ar
  24   14   41 1
  25   15   16 ar
  26   15   18 1
  27   16   17 ar
  28   16   22 1
  29   17   42 1
  30   20   21 am
  31   20   29 1
  32   20   33 1
  33   21   22 1
  34   21   30 2
  35   22   23 2
  36   23   24 1
  37   23   43 1
  38   24   25 ar
  39   24   29 ar
  40   25   26 ar
  41   25   44 1
  42   26   27 ar
  43   27   28 ar
  44   27   31 1
  45   28   29 ar
  46   28   45 1
  47   31   32 1
  48   31   46 1
  49   32   47 1
  50   32   48 1
  51   32   49 1
  52   33   34 1
  53   33   50 1
  54   33   51 1
  55   34   52 1
  56   34   53 1
  57   34   54 1

#	End of record

