#	Name: ASD03092521
#	Creating user name:	WinNT
#	Creation time:	15. 06. 2019 20:32

#	Modifying user name:	WinNT
#	Modification time:	15. 06. 2019 20:32

#	Program:	/corina/corina34_cracker 3.40 0067  02.08.2006

@<TRIPOS>MOLECULE
ASD03092521
  38   40    0    0    0
SMALL
NO_CHARGES


@<TRIPOS>ATOM
   1 O1            -0.0143     1.2047     0.0087 O.3     
   2 N2             0.0021    -0.0041     0.0020 N.2     
   3 C3             1.2152    -0.4747    -0.0121 C.2     
   4 C4             2.0809     0.6416    -0.0144 C.2     
   5 C5             1.2318     1.7144    -0.0005 C.2     
   6 C6             1.6061     3.1413     0.0029 C.2     
   7 O7             2.7788     3.4622    -0.0070 O.2     
   8 N8             0.6481     4.0892     0.0168 N.am    
   9 C9             1.0198     5.5063     0.0202 C.3     
  10 C10            1.2568     5.9747    -1.4169 C.3     
  11 N11           -2.9480     8.6858     2.4439 N.pl3   
  12 C12           -2.1566     9.5484     3.1523 C.2     
  13 C13           -0.8628     9.2517     2.9520 C.2     
  14 C14           -0.8224     8.1054     2.0409 C.ar    
  15 C15            0.2076     7.3546     1.4708 C.ar    
  16 C16           -0.0924     6.3159     0.6355 C.ar    
  17 C17           -1.4136     6.0006     0.3486 C.ar    
  18 C18           -2.4452     6.7284     0.8997 C.ar    
  19 C19           -2.1628     7.7903     1.7530 C.ar    
  20 C20           -2.6625    10.6662     4.0272 C.3     
  21 C21            3.5878     0.6491    -0.0283 C.3     
  22 H22            1.5038    -1.5154    -0.0199 H       
  23 H23           -0.2875     3.8332     0.0247 H       
  24 H24            1.9320     5.6413     0.6014 H       
  25 H25            2.0613     5.3892    -1.8620 H       
  26 H26            0.3447     5.8397    -1.9982 H       
  27 H27            1.5334     7.0291    -1.4144 H       
  28 H28           -3.9178     8.7003     2.4333 H       
  29 H29           -0.0129     9.7615     3.3812 H       
  30 H30            1.2378     7.5946     1.6887 H       
  31 H31           -1.6349     5.1766    -0.3136 H       
  32 H32           -3.4697     6.4755     0.6701 H       
  33 H33           -2.8066    10.2963     5.0423 H       
  34 H34           -1.9352    11.4781     4.0362 H       
  35 H35           -3.6115    11.0328     3.6360 H       
  36 H36            3.9416     0.6566    -1.0592 H       
  37 H37            3.9515     1.5379     0.4872 H       
  38 H38            3.9602    -0.2420     0.4772 H       
@<TRIPOS>BOND
   1    1    2 1
   2    1    5 1
   3    2    3 2
   4    3    4 1
   5    3   22 1
   6    4    5 2
   7    4   21 1
   8    5    6 1
   9    6    7 2
  10    6    8 am
  11    8    9 1
  12    8   23 1
  13    9   10 1
  14    9   16 1
  15    9   24 1
  16   10   25 1
  17   10   26 1
  18   10   27 1
  19   11   12 1
  20   11   19 1
  21   11   28 1
  22   12   13 2
  23   12   20 1
  24   13   14 1
  25   13   29 1
  26   14   15 ar
  27   14   19 ar
  28   15   16 ar
  29   15   30 1
  30   16   17 ar
  31   17   18 ar
  32   17   31 1
  33   18   19 ar
  34   18   32 1
  35   20   33 1
  36   20   34 1
  37   20   35 1
  38   21   36 1
  39   21   37 1
  40   21   38 1

#	End of record

