#	Name: ASD01150229
#	Creating user name:	WinNT
#	Creation time:	15. 06. 2019 19:03

#	Modifying user name:	WinNT
#	Modification time:	15. 06. 2019 19:03

#	Program:	/corina/corina34_cracker 3.40 0067  02.08.2006

@<TRIPOS>MOLECULE
ASD01150229
  49   52    0    0    0
SMALL
NO_CHARGES


@<TRIPOS>ATOM
   1 C1            -0.0158     1.3174     0.0093 C.ar    
   2 N2             0.0021    -0.0041     0.0020 N.ar    
   3 C3             1.1580    -0.6614    -0.0120 C.ar    
   4 C4             2.3512     0.0338    -0.0267 C.ar    
   5 N5             2.3470     1.3625    -0.0169 N.ar    
   6 C6             1.1997     2.0244     0.0015 C.ar    
   7 C7             1.1485     3.4986     0.0148 C.2     
   8 N8            -0.0627     4.0963     0.0322 N.am    
   9 C9            -1.1941     3.3740     0.0365 C.2     
  10 N10           -1.2004     2.0302     0.0301 N.am    
  11 C11           -0.1430     5.5590     0.0471 C.3     
  12 O12            2.1697     4.1584     0.0107 O.2     
  13 C13           -0.1841     6.0742    -1.3685 C.ar    
  14 C14           -1.3985     6.2448    -2.0067 C.ar    
  15 C15           -1.4368     6.7173    -3.3050 C.ar    
  16 C16           -0.2595     7.0197    -3.9659 C.ar    
  17 C17            0.9555     6.8488    -3.3266 C.ar    
  18 C18            0.9923     6.3815    -2.0264 C.ar    
  19 Cl19          -0.3068     7.6127    -5.5968 Cl      
  20 O20           -2.2588     3.9607     0.0511 O.2     
  21 C21           -2.4774     1.3122     0.0343 C.3     
  22 C22           -2.9304     1.0691    -1.4067 C.3     
  23 C23            1.0993    -2.1671    -0.0019 C.3     
  24 C24            2.4325    -2.7594    -0.4537 C.3     
  25 C25            3.5536    -2.1146     0.3695 C.3     
  26 C26            3.6903    -0.6556    -0.0615 C.3     
  27 C27           -4.2641     0.3193    -1.4024 C.3     
  28 O28            3.5720     2.0727    -0.0257 O.3     
  29 H29           -1.0466     5.8680     0.5726 H       
  30 H30            0.7306     5.9656     0.5565 H       
  31 H31           -2.3174     6.0084    -1.4909 H       
  32 H32           -2.3855     6.8501    -3.8037 H       
  33 H33            1.8748     7.0847    -3.8420 H       
  34 H34            1.9407     6.2481    -1.5272 H       
  35 H35           -2.3549     0.3560     0.5429 H       
  36 H36           -3.2272     1.9075     0.5554 H       
  37 H37           -3.0529     2.0254    -1.9153 H       
  38 H38           -2.1806     0.4739    -1.9278 H       
  39 H39            0.8768    -2.5114     1.0081 H       
  40 H40            0.3108    -2.5005    -0.6766 H       
  41 H41            2.4296    -3.8367    -0.2882 H       
  42 H42            2.5873    -2.5486    -1.5119 H       
  43 H43            3.3046    -2.1624     1.4296 H       
  44 H44            4.4910    -2.6402     0.1881 H       
  45 H45            4.0890    -0.6160    -1.0751 H       
  46 H46            4.3758    -0.1439     0.6141 H       
  47 H47           -5.0139     0.9145    -0.8813 H       
  48 H48           -4.5869     0.1461    -2.4290 H       
  49 H49           -4.1416    -0.6370    -0.8938 H       
@<TRIPOS>BOND
   1    1    2 ar
   2    1    6 ar
   3    1   10 1
   4    2    3 ar
   5    3    4 ar
   6    3   23 1
   7    4    5 ar
   8    4   26 1
   9    5    6 ar
  10    5   28 1
  11    6    7 1
  12    7    8 am
  13    7   12 2
  14    8    9 am
  15    8   11 1
  16    9   10 am
  17    9   20 2
  18   10   21 1
  19   11   13 1
  20   11   29 1
  21   11   30 1
  22   13   14 ar
  23   13   18 ar
  24   14   15 ar
  25   14   31 1
  26   15   16 ar
  27   15   32 1
  28   16   17 ar
  29   16   19 1
  30   17   18 ar
  31   17   33 1
  32   18   34 1
  33   21   22 1
  34   21   35 1
  35   21   36 1
  36   22   27 1
  37   22   37 1
  38   22   38 1
  39   23   24 1
  40   23   39 1
  41   23   40 1
  42   24   25 1
  43   24   41 1
  44   24   42 1
  45   25   26 1
  46   25   43 1
  47   25   44 1
  48   26   45 1
  49   26   46 1
  50   27   47 1
  51   27   48 1
  52   27   49 1

#	End of record

