#	Name: ASD03730292
#	Creating user name:	WinNT
#	Creation time:	15. 06. 2019 20:44

#	Modifying user name:	WinNT
#	Modification time:	15. 06. 2019 20:44

#	Program:	/corina/corina34_cracker 3.40 0067  02.08.2006

@<TRIPOS>MOLECULE
ASD03730292
  56   61    0    0    0
SMALL
NO_CHARGES


@<TRIPOS>ATOM
   1 O1            -0.4307     1.1640     1.1778 O.3     
   2 C2            -0.3670    -0.2730     1.2441 C.3     
   3 O3             0.7326    -0.6075     0.3771 O.3     
   4 C4             1.5557     0.4822     0.3939 C.ar    
   5 C5             0.8393     1.5716     0.8845 C.ar    
   6 C6             2.8803     0.6345     0.0258 C.ar    
   7 C7             3.5055     1.8728     0.1390 C.ar    
   8 C8             2.7768     2.9561     0.6206 C.ar    
   9 C9             1.4577     2.8057     0.9948 C.ar    
  10 O10            4.7902     2.2299    -0.1478 O.3     
  11 C11            3.7044     4.1414     0.5966 C.3     
  12 C12            4.8653     3.6620    -0.2855 C.3     
  13 N13            3.1330     6.3190     0.9878 N.am    
  14 C14            3.0451     5.3686     0.0360 C.2     
  15 C15            4.1684     4.5314     1.9684 C.ar    
  16 C16            4.8394     3.8598     2.9810 C.ar    
  17 C17            5.1336     4.5194     4.1740 C.ar    
  18 C18            4.7542     5.8368     4.3385 C.ar    
  19 C19            4.0876     6.5043     3.3313 C.ar    
  20 C20            3.7875     5.8584     2.1333 C.ar    
  21 O21            2.5340     5.4823    -1.0581 O.2     
  22 C22            5.1388     0.1350     3.4147 C.ar    
  23 C23            4.7372     1.4385     3.6228 C.ar    
  24 C24            5.2430     2.4443     2.7945 C.ar    
  25 C25            6.1388     2.0802     1.7854 C.ar    
  26 C26            6.4870     0.7523     1.6465 C.ar    
  27 N27            5.9868    -0.1665     2.4502 N.ar    
  28 C28            2.6040     7.6770     0.8387 C.3     
  29 C29            1.1574     7.7182     1.3352 C.3     
  30 C30            0.6049     9.1364     1.1795 C.3     
  31 C31           -0.8417     9.1775     1.6760 C.3     
  32 C32           -1.3942    10.5958     1.5203 C.3     
  33 H33           -0.1642    -0.6006     2.2637 H       
  34 H34           -1.2930    -0.7147     0.8760 H       
  35 H35            3.4331    -0.2131    -0.3515 H       
  36 H36            0.9056     3.6528     1.3744 H       
  37 H37            5.8173     4.0377     0.0895 H       
  38 H38            4.7119     3.9598    -1.3228 H       
  39 H39            5.6554     4.0021     4.9656 H       
  40 H40            4.9805     6.3485     5.2623 H       
  41 H41            3.7959     7.5345     3.4726 H       
  42 H42            4.7568    -0.6485     4.0525 H       
  43 H43            4.0423     1.6781     4.4140 H       
  44 H44            6.5522     2.8272     1.1239 H       
  45 H45            7.1786     0.4613     0.8696 H       
  46 H46            3.2090     8.3690     1.4246 H       
  47 H47            2.6360     7.9661    -0.2117 H       
  48 H48            0.5524     7.0262     0.7494 H       
  49 H49            1.1254     7.4291     2.3857 H       
  50 H50            1.2099     9.8284     1.7654 H       
  51 H51            0.6369     9.4255     0.1290 H       
  52 H52           -1.4468     8.4855     1.0901 H       
  53 H53           -0.8737     8.8884     2.7265 H       
  54 H54           -0.7892    11.2877     2.1061 H       
  55 H55           -1.3623    10.8849     0.4698 H       
  56 H56           -2.4248    10.6251     1.8740 H       
@<TRIPOS>BOND
   1    1    2 1
   2    1    5 1
   3    2    3 1
   4    2   33 1
   5    2   34 1
   6    3    4 1
   7    4    5 ar
   8    4    6 ar
   9    5    9 ar
  10    6    7 ar
  11    6   35 1
  12    7    8 ar
  13    7   10 1
  14    8    9 ar
  15    8   11 1
  16    9   36 1
  17   10   12 1
  18   11   12 1
  19   11   14 1
  20   11   15 1
  21   12   37 1
  22   12   38 1
  23   13   14 am
  24   13   20 1
  25   13   28 1
  26   14   21 2
  27   15   16 ar
  28   15   20 ar
  29   16   17 ar
  30   16   24 1
  31   17   18 ar
  32   17   39 1
  33   18   19 ar
  34   18   40 1
  35   19   20 ar
  36   19   41 1
  37   22   23 ar
  38   22   27 ar
  39   22   42 1
  40   23   24 ar
  41   23   43 1
  42   24   25 ar
  43   25   26 ar
  44   25   44 1
  45   26   27 ar
  46   26   45 1
  47   28   29 1
  48   28   46 1
  49   28   47 1
  50   29   30 1
  51   29   48 1
  52   29   49 1
  53   30   31 1
  54   30   50 1
  55   30   51 1
  56   31   32 1
  57   31   52 1
  58   31   53 1
  59   32   54 1
  60   32   55 1
  61   32   56 1

#	End of record

