#	Name: ASD01916394
#	Creating user name:	WinNT
#	Creation time:	15. 06. 2019 20:07

#	Modifying user name:	WinNT
#	Modification time:	15. 06. 2019 20:07

#	Program:	/corina/corina34_cracker 3.40 0067  02.08.2006

@<TRIPOS>MOLECULE
ASD01916394
  32   34    0    0    0
SMALL
NO_CHARGES


@<TRIPOS>ATOM
   1 N1            -0.0169     1.3954     0.0097 N.2     
   2 N2             0.0021    -0.0041     0.0020 N.pl3   
   3 C3             1.2679    -0.4440    -0.0124 C.2     
   4 C4             2.1011     0.6589    -0.0145 C.ar    
   5 C5             3.4999     0.8489    -0.0272 C.ar    
   6 C6             4.0041     2.1082    -0.0256 C.ar    
   7 C7             3.1746     3.2318    -0.0112 C.ar    
   8 C8             1.8217     3.1221     0.0015 C.ar    
   9 C9             1.2260     1.8413     0.0002 C.ar    
  10 C10           -1.1860    -0.8612     0.0095 C.3     
  11 C11           -2.0719    -0.4945     1.2018 C.3     
  12 C12           -3.2656    -1.3557     1.2094 C.1     
  13 C13           -4.2177    -2.0426     1.2154 C.1     
  14 C14           -5.3790    -2.8804     1.2227 C.ar    
  15 C15           -6.3372    -2.7269     2.2254 C.ar    
  16 C16           -7.4536    -3.5440     2.2187 C.ar    
  17 C17           -7.5773    -4.4891     1.2095 C.ar    
  18 C18           -6.5898    -4.5874     0.2468 C.ar    
  19 N19           -5.5385    -3.7938     0.2720 N.ar    
  20 Cl20           0.8298     4.5467     0.0198 Cl      
  21 H21            1.5815    -1.4775    -0.0204 H       
  22 H22            4.1641    -0.0026    -0.0378 H       
  23 H23            5.0753     2.2456    -0.0354 H       
  24 H24            3.6218     4.2149    -0.0098 H       
  25 H25           -1.7440    -0.7169    -0.9157 H       
  26 H26           -0.8809    -1.9044     0.0908 H       
  27 H27           -1.5139    -0.6388     2.1270 H       
  28 H28           -2.3770     0.5488     1.1205 H       
  29 H29           -6.2089    -1.9811     2.9960 H       
  30 H30           -8.2119    -3.4488     2.9818 H       
  31 H31           -8.4369    -5.1421     1.1769 H       
  32 H32           -6.6836    -5.3222    -0.5392 H       
@<TRIPOS>BOND
   1    1    2 1
   2    1    9 2
   3    2    3 1
   4    2   10 1
   5    3    4 2
   6    3   21 1
   7    4    5 ar
   8    4    9 ar
   9    5    6 ar
  10    5   22 1
  11    6    7 ar
  12    6   23 1
  13    7    8 ar
  14    7   24 1
  15    8    9 ar
  16    8   20 1
  17   10   11 1
  18   10   25 1
  19   10   26 1
  20   11   12 1
  21   11   27 1
  22   11   28 1
  23   12   13 3
  24   13   14 1
  25   14   15 ar
  26   14   19 ar
  27   15   16 ar
  28   15   29 1
  29   16   17 ar
  30   16   30 1
  31   17   18 ar
  32   17   31 1
  33   18   19 ar
  34   18   32 1

#	End of record

