#	Name: ASD01411203
#	Creating user name:	WinNT
#	Creation time:	15. 06. 2019 19:19

#	Modifying user name:	WinNT
#	Modification time:	15. 06. 2019 19:19

#	Program:	/corina/corina34_cracker 3.40 0067  02.08.2006

@<TRIPOS>MOLECULE
ASD01411203
  67   69    0    0    0
SMALL
NO_CHARGES


@<TRIPOS>ATOM
   1 C1             0.2706     3.4182    -1.1095 C.ar    
   2 C2             0.5596     2.9751    -2.3926 C.ar    
   3 C3             1.7235     2.2664    -2.6166 C.ar    
   4 N4             2.5586     2.0080    -1.6285 N.ar    
   5 C5             2.3181     2.4134    -0.3923 C.ar    
   6 C6             1.1668     3.1311    -0.0944 C.ar    
   7 C7             4.3633     0.0589     0.8158 C.ar    
   8 C8             4.2700     1.3397     0.2846 C.ar    
   9 O9             3.2043     2.1255     0.5937 O.3     
  10 C10            5.4410    -0.7469     0.5090 C.ar    
  11 C11            6.4411    -0.2821    -0.3337 C.ar    
  12 C12            6.3527     1.0101    -0.8737 C.ar    
  13 C13            5.2578     1.8179    -0.5570 C.ar    
  14 N14            7.5298    -1.0961    -0.6425 N.am    
  15 C15            7.6044    -1.6929    -1.8486 C.2     
  16 C16            8.7210    -2.6614    -2.1424 C.3     
  17 O17            6.7729    -1.4505    -2.6975 O.2     
  18 C18            8.8021    -2.9039    -3.6508 C.3     
  19 C19            8.4487    -3.9860    -1.4268 C.3     
  20 C20            7.1238    -4.5699    -1.9214 C.3     
  21 C21            7.2049    -4.8124    -3.4299 C.3     
  22 C22            7.4772    -3.4878    -4.1455 C.3     
  23 C23            5.8800    -5.3963    -3.9245 C.3     
  24 C24            8.5929    -1.3029     0.3441 C.3     
  25 C25            9.3498     0.0090     0.5608 C.3     
  26 O26           10.0234     0.3751    -0.6451 O.3     
  27 C27           10.8607     1.5260    -0.5167 C.3     
  28 C28            7.9781    -1.7617     1.6679 C.3     
  29 C29            7.3428    -3.1414     1.4841 C.3     
  30 C30            0.8969     3.5909     1.3151 C.3     
  31 F31           -0.3159     4.2871     1.3544 F       
  32 F32            0.8245     2.4799     2.1623 F       
  33 F33            1.9317     4.4325     1.7372 F       
  34 C34            7.4100     1.5128    -1.7691 C.2     
  35 O35            8.3131     0.7774    -2.1157 O.2     
  36 O36            7.3751     2.7880    -2.2034 O.3     
  37 H37           -0.6307     3.9783    -0.9085 H       
  38 H38           -0.1187     3.1820    -3.2072 H       
  39 H39            1.9529     1.9190    -3.6131 H       
  40 H40            3.5904    -0.3063     1.4759 H       
  41 H41            5.5064    -1.7411     0.9257 H       
  42 H42            5.1828     2.8135    -0.9688 H       
  43 H43            9.6649    -2.2454    -1.7900 H       
  44 H44            8.9961    -1.9602    -4.1606 H       
  45 H45            9.6097    -3.6044    -3.8633 H       
  46 H46            9.2563    -4.6865    -1.6392 H       
  47 H47            8.3909    -3.8132    -0.3521 H       
  48 H48            6.9298    -5.5136    -1.4116 H       
  49 H49            6.3162    -3.8694    -1.7089 H       
  50 H50            8.0125    -5.5129    -3.6423 H       
  51 H51            6.6696    -2.7873    -3.9330 H       
  52 H52            7.5350    -3.6606    -5.2201 H       
  53 H53            5.0724    -4.6959    -3.7120 H       
  54 H54            5.9378    -5.5691    -4.9991 H       
  55 H55            5.6860    -6.3400    -3.4147 H       
  56 H56            9.2828    -2.0646    -0.0194 H       
  57 H57            8.6452     0.7937     0.8361 H       
  58 H58           10.0798    -0.1205     1.3599 H       
  59 H59           11.4025     1.6869    -1.4487 H       
  60 H60           10.2465     2.3996    -0.2980 H       
  61 H61           11.5716     1.3694     0.2945 H       
  62 H62            8.7558    -1.8183     2.4294 H       
  63 H63            7.2148    -1.0490     1.9803 H       
  64 H64            6.6603    -3.1169     0.6345 H       
  65 H65            8.1238    -3.8796     1.3016 H       
  66 H66            6.7918    -3.4106     2.3852 H       
  67 H67            8.0903     3.0721    -2.7889 H       
@<TRIPOS>BOND
   1    1    2 ar
   2    1    6 ar
   3    1   37 1
   4    2    3 ar
   5    2   38 1
   6    3    4 ar
   7    3   39 1
   8    4    5 ar
   9    5    6 ar
  10    5    9 1
  11    6   30 1
  12    7    8 ar
  13    7   10 ar
  14    7   40 1
  15    8    9 1
  16    8   13 ar
  17   10   11 ar
  18   10   41 1
  19   11   12 ar
  20   11   14 1
  21   12   13 ar
  22   12   34 1
  23   13   42 1
  24   14   15 am
  25   14   24 1
  26   15   17 2
  27   15   16 1
  28   16   18 1
  29   16   19 1
  30   16   43 1
  31   18   22 1
  32   18   44 1
  33   18   45 1
  34   19   20 1
  35   19   46 1
  36   19   47 1
  37   20   21 1
  38   20   48 1
  39   20   49 1
  40   21   22 1
  41   21   23 1
  42   21   50 1
  43   22   51 1
  44   22   52 1
  45   23   53 1
  46   23   54 1
  47   23   55 1
  48   24   28 1
  49   24   25 1
  50   24   56 1
  51   25   26 1
  52   25   57 1
  53   25   58 1
  54   26   27 1
  55   27   59 1
  56   27   60 1
  57   27   61 1
  58   28   29 1
  59   28   62 1
  60   28   63 1
  61   29   64 1
  62   29   65 1
  63   29   66 1
  64   30   31 1
  65   30   32 1
  66   30   33 1
  67   34   35 2
  68   34   36 1
  69   36   67 1

#	End of record

