#	Name: ASD03930111
#	Creating user name:	WinNT
#	Creation time:	15. 06. 2019 20:47

#	Modifying user name:	WinNT
#	Modification time:	15. 06. 2019 20:47

#	Program:	/corina/corina34_cracker 3.40 0067  02.08.2006

@<TRIPOS>MOLECULE
ASD03930111
  53   55    0    0    0
SMALL
NO_CHARGES


@<TRIPOS>ATOM
   1 C1            -0.0167     1.3783     0.0096 C.ar    
   2 C2             0.0021    -0.0041     0.0020 C.ar    
   3 C3             1.2080    -0.6769    -0.0131 C.ar    
   4 C4             2.3998     0.0287    -0.0207 C.ar    
   5 C5             2.3810     1.4107    -0.0130 C.ar    
   6 C6             1.1706     2.0837     0.0021 C.ar    
   7 C7             3.8311    -0.4635    -0.0369 C.3     
   8 C8             4.6717     0.7533    -0.4785 C.3     
   9 C9             3.7985     1.9418    -0.0236 C.3     
  10 N10            5.9672     0.7671     0.2054 N.am    
  11 C11           -1.2922    -0.7760     0.0107 C.3     
  12 N12           -1.7253    -1.0187    -1.3676 N.pl3   
  13 N13           -1.9198    -0.0434    -2.3542 N.2     
  14 C14           -2.3054    -0.6430    -3.4513 C.2     
  15 C15           -2.3688    -2.0173    -3.1989 C.2     
  16 C16           -2.0018    -2.2218    -1.9127 C.2     
  17 C17           -2.6264     0.0307    -4.7605 C.3     
  18 F18           -2.3399     1.3967    -4.6645 F       
  19 F19           -1.8537    -0.5374    -5.7790 F       
  20 F20           -3.9835    -0.1417    -5.0533 F       
  21 S21            7.3151     1.3151    -0.5853 S.o2    
  22 O22            8.3640     1.1591     0.3607 O.2     
  23 O23            7.3201     0.5946    -1.8101 O.2     
  24 C24            6.9821     3.0733    -0.8824 C.3     
  25 C25            6.7752     3.7864     0.4554 C.3     
  26 C26           -2.7690    -3.0826    -4.1869 C.3     
  27 C27           -1.5503    -3.4930    -5.0159 C.3     
  28 C28            8.1692     3.7003    -1.6163 C.3     
  29 O29           -1.9297    -4.5032    -5.9527 O.3     
  30 H30           -0.9589     1.9061     0.0170 H       
  31 H31            1.2219    -1.7568    -0.0187 H       
  32 H32            1.1552     3.1635     0.0076 H       
  33 H33            4.1306    -0.7886     0.9595 H       
  34 H34            3.9424    -1.2794    -0.7511 H       
  35 H35            4.8035     0.7610    -1.5605 H       
  36 H36            3.8874     2.7682    -0.7288 H       
  37 H37            4.0892     2.2639     0.9763 H       
  38 H38            6.0354     0.4552     1.1214 H       
  39 H39           -1.1433    -1.7292     0.5180 H       
  40 H40           -2.0549    -0.2005     0.5353 H       
  41 H41           -1.9472    -3.1762    -1.4101 H       
  42 H42            6.0837     3.1751    -1.4912 H       
  43 H43            7.6736     3.6845     1.0641 H       
  44 H44            6.5751     4.8429     0.2768 H       
  45 H45            5.9295     3.3397     0.9782 H       
  46 H46           -3.1522    -3.9505    -3.6501 H       
  47 H47           -3.5434    -2.6930    -4.8476 H       
  48 H48           -1.1670    -2.6252    -5.5527 H       
  49 H49           -0.7759    -3.8826    -4.3552 H       
  50 H50            8.3166     3.1923    -2.5693 H       
  51 H51            7.9691     4.7568    -1.7948 H       
  52 H52            9.0676     3.5985    -1.0075 H       
  53 H53           -1.2048    -4.8117    -6.5135 H       
@<TRIPOS>BOND
   1    1    2 ar
   2    1    6 ar
   3    1   30 1
   4    2    3 ar
   5    2   11 1
   6    3    4 ar
   7    3   31 1
   8    4    5 ar
   9    4    7 1
  10    5    6 ar
  11    5    9 1
  12    6   32 1
  13    7    8 1
  14    7   33 1
  15    7   34 1
  16    8    9 1
  17    8   10 1
  18    8   35 1
  19    9   36 1
  20    9   37 1
  21   10   21 am
  22   10   38 1
  23   11   12 1
  24   11   39 1
  25   11   40 1
  26   12   13 1
  27   12   16 1
  28   13   14 2
  29   14   15 1
  30   14   17 1
  31   15   16 2
  32   15   26 1
  33   16   41 1
  34   17   18 1
  35   17   19 1
  36   17   20 1
  37   21   22 2
  38   21   23 2
  39   21   24 1
  40   24   25 1
  41   24   28 1
  42   24   42 1
  43   25   43 1
  44   25   44 1
  45   25   45 1
  46   26   27 1
  47   26   46 1
  48   26   47 1
  49   27   29 1
  50   27   48 1
  51   27   49 1
  52   28   50 1
  53   28   51 1
  54   28   52 1
  55   29   53 1

#	End of record

