#	Name: ASD02030061
#	Creating user name:	WinNT
#	Creation time:	15. 06. 2019 20:14

#	Modifying user name:	WinNT
#	Modification time:	15. 06. 2019 20:14

#	Program:	/corina/corina34_cracker 3.40 0067  02.08.2006

@<TRIPOS>MOLECULE
ASD02030061
  74   78    0    0    0
SMALL
NO_CHARGES


@<TRIPOS>ATOM
   1 C1            -2.7179    -6.5130     4.8558 C.3     
   2 C2            -1.8436    -6.8265     2.5315 C.ar    
   3 C3            -2.0176    -5.9984     3.6246 C.ar    
   4 C4            -1.5496    -4.6982     3.5881 C.ar    
   5 C5            -0.9072    -4.2262     2.4588 C.ar    
   6 C6            -0.7324    -5.0546     1.3660 C.ar    
   7 C7            -1.1996    -6.3551     1.4028 C.ar    
   8 S8             0.0859    -4.4528    -0.0738 S.o2    
   9 N9             1.6770    -4.8959     0.0455 N.am    
  10 C10            2.4516    -4.4280     1.1007 C.ar    
  11 O11           -0.4510    -5.1766    -1.1725 O.2     
  12 O12            0.0568    -3.0347     0.0114 O.2     
  13 C13            3.2682    -5.3077     1.8064 C.ar    
  14 C14            4.0331    -4.8496     2.8480 C.ar    
  15 C15            3.9928    -3.4970     3.2011 C.ar    
  16 C16            3.1718    -2.6160     2.4899 C.ar    
  17 C17            2.4134    -3.0797     1.4460 C.ar    
  18 C18            4.8133    -3.0011     4.3205 C.2     
  19 O19            4.7733    -1.6975     4.6595 O.3     
  20 O20            5.5258    -3.7679     4.9378 O.2     
  21 C21            5.6076    -1.2798     5.7721 C.3     
  22 C22            4.8182    -1.3615     7.1022 C.3     
  23 C23            5.5746    -0.3607     8.0106 C.3     
  24 C24            5.9536     0.7972     7.0644 C.3     
  25 C25            5.9746     0.2129     5.6411 C.3     
  26 N26            7.3128     0.3516     5.0613 N.am    
  27 C27            7.6564     1.4881     4.4235 C.2     
  28 O28            6.8558     2.3982     4.3293 O.2     
  29 C29            9.0048     1.6279     3.8394 C.ar    
  30 C30            9.3629     2.8054     3.1778 C.ar    
  31 C31           10.6218     2.9319     2.6342 C.ar    
  32 C32           11.5356     1.8902     2.7429 C.ar    
  33 C33           11.1831     0.7171     3.3999 C.ar    
  34 C34            9.9283     0.5853     3.9516 C.ar    
  35 O35           12.7753     2.0187     2.2058 O.3     
  36 C36           13.6646     0.9100     2.3539 C.3     
  37 C37           14.9833     1.2329     1.6998 C.ar    
  38 C38           15.9875     1.8391     2.4313 C.ar    
  39 C39           17.1971     2.1353     1.8313 C.ar    
  40 C40           17.4027     1.8250     0.5000 C.ar    
  41 C41           16.3988     1.2180    -0.2312 C.ar    
  42 C42           15.1907     0.9178     0.3699 C.ar    
  43 H43           -1.9856    -6.9510     5.5340 H       
  44 H44           -3.2278    -5.6889     5.3548 H       
  45 H45           -3.4467    -7.2710     4.5691 H       
  46 H46           -2.2053    -7.8437     2.5616 H       
  47 H47           -1.6861    -4.0510     4.4419 H       
  48 H48           -0.5422    -3.2102     2.4300 H       
  49 H49           -1.0627    -7.0024     0.5491 H       
  50 H50            2.0686    -5.4819    -0.6210 H       
  51 H51            3.2989    -6.3522     1.5332 H       
  52 H52            4.6658    -5.5326     3.3954 H       
  53 H53            3.1381    -1.5709     2.7603 H       
  54 H54            1.7795    -2.3998     0.8961 H       
  55 H55            6.5074    -1.8928     5.8242 H       
  56 H56            3.7845    -1.0471     6.9578 H       
  57 H57            4.8624    -2.3688     7.5164 H       
  58 H58            4.9242    -0.0035     8.8091 H       
  59 H59            6.4702    -0.8234     8.4251 H       
  60 H60            5.2107     1.5921     7.1307 H       
  61 H61            6.9391     1.1841     7.3238 H       
  62 H62            5.2419     0.7241     5.0167 H       
  63 H63            7.9516    -0.3745     5.1365 H       
  64 H64            8.6533     3.6150     3.0926 H       
  65 H65           10.8993     3.8415     2.1224 H       
  66 H66           11.8958    -0.0901     3.4819 H       
  67 H67            9.6552    -0.3264     4.4622 H       
  68 H68           13.8238     0.7109     3.4136 H       
  69 H69           13.2299     0.0298     1.8801 H       
  70 H70           15.8269     2.0815     3.4714 H       
  71 H71           17.9814     2.6095     2.4026 H       
  72 H72           18.3475     2.0571     0.0311 H       
  73 H73           16.5593     0.9759    -1.2714 H       
  74 H74           14.4077     0.4402    -0.2003 H       
@<TRIPOS>BOND
   1    1    3 1
   2    1   43 1
   3    1   44 1
   4    1   45 1
   5    2    3 ar
   6    2    7 ar
   7    2   46 1
   8    3    4 ar
   9    4    5 ar
  10    4   47 1
  11    5    6 ar
  12    5   48 1
  13    6    7 ar
  14    6    8 1
  15    7   49 1
  16    8    9 am
  17    8   11 2
  18    8   12 2
  19    9   10 1
  20    9   50 1
  21   10   13 ar
  22   10   17 ar
  23   13   14 ar
  24   13   51 1
  25   14   15 ar
  26   14   52 1
  27   15   16 ar
  28   15   18 1
  29   16   17 ar
  30   16   53 1
  31   17   54 1
  32   18   19 1
  33   18   20 2
  34   19   21 1
  35   21   22 1
  36   21   25 1
  37   21   55 1
  38   22   23 1
  39   22   56 1
  40   22   57 1
  41   23   24 1
  42   23   58 1
  43   23   59 1
  44   24   25 1
  45   24   60 1
  46   24   61 1
  47   25   26 1
  48   25   62 1
  49   26   27 am
  50   26   63 1
  51   27   28 2
  52   27   29 1
  53   29   30 ar
  54   29   34 ar
  55   30   31 ar
  56   30   64 1
  57   31   32 ar
  58   31   65 1
  59   32   33 ar
  60   32   35 1
  61   33   34 ar
  62   33   66 1
  63   34   67 1
  64   35   36 1
  65   36   37 1
  66   36   68 1
  67   36   69 1
  68   37   38 ar
  69   37   42 ar
  70   38   39 ar
  71   38   70 1
  72   39   40 ar
  73   39   71 1
  74   40   41 ar
  75   40   72 1
  76   41   42 ar
  77   41   73 1
  78   42   74 1

#	End of record

