#	Name: ASD00450025
#	Creating user name:	WinNT
#	Creation time:	15. 06. 2019 18:36

#	Modifying user name:	WinNT
#	Modification time:	15. 06. 2019 18:36

#	Program:	/corina/corina34_cracker 3.40 0067  02.08.2006

@<TRIPOS>MOLECULE
ASD00450025
  50   52    0    0    0
SMALL
NO_CHARGES


@<TRIPOS>ATOM
   1 C1            -2.7048     3.5552    -3.2252 C.ar    
   2 C2            -3.3607     4.0334    -4.3423 C.ar    
   3 C3            -2.7193     4.9197    -5.1973 C.ar    
   4 C4            -1.4186     5.3246    -4.9285 C.ar    
   5 C5            -0.7637     4.8457    -3.8111 C.ar    
   6 C6            -1.4051     3.9602    -2.9571 C.ar    
   7 O7            -0.7600     3.4894    -1.8568 O.3     
   8 C8             0.5009     3.9354    -1.6170 C.ar    
   9 C9             0.6978     5.1706    -1.0187 C.ar    
  10 C10            1.5926     3.1523    -1.9655 C.ar    
  11 C11            2.8756     3.6045    -1.7218 C.ar    
  12 C12            3.0759     4.8368    -1.1308 C.ar    
  13 C13            1.9868     5.6229    -0.7749 C.ar    
  14 N14            2.1895     6.8685    -0.1720 N.pl3   
  15 C15            1.2817     7.3443     0.7473 C.2     
  16 N16            1.4165     8.6179     1.2520 N.pl3   
  17 N17            0.2947     6.5889     1.1396 N.2     
  18 C18            2.3972     9.4738     0.7387 C.ar    
  19 C19            2.6990     9.4523    -0.6169 C.ar    
  20 C20            3.0665    10.3502     1.5826 C.ar    
  21 C21            4.0342    11.1940     1.0732 C.ar    
  22 C22            4.3369    11.1665    -0.2766 C.ar    
  23 C23            3.6673    10.2980    -1.1209 C.ar    
  24 C24            3.9953    10.2752    -2.5916 C.3     
  25 Cl25           5.5537    12.2283    -0.9135 Cl      
  26 F26            3.1947     9.3242    -3.2333 F       
  27 F27            3.7525    11.5377    -3.1432 F       
  28 F28            5.3432     9.9425    -2.7637 F       
  29 N29           -3.3840     5.4048    -6.3310 N.pl3   
  30 C30           -4.7277     5.6954    -6.2690 C.2     
  31 N31           -5.4037     6.0685    -7.4069 N.pl3   
  32 N32           -5.3597     5.6170    -5.1317 N.2     
  33 H33           -3.2051     2.8693    -2.5576 H       
  34 H34           -4.3722     3.7178    -4.5510 H       
  35 H35           -0.9191     6.0137    -5.5934 H       
  36 H36            0.2481     5.1603    -3.6021 H       
  37 H37           -0.1505     5.7798    -0.7434 H       
  38 H38            1.4392     2.1882    -2.4275 H       
  39 H39            3.7233     2.9931    -1.9937 H       
  40 H40            4.0795     5.1876    -0.9411 H       
  41 H41            2.9697     7.3972    -0.4016 H       
  42 H42            0.8316     8.9220     1.9636 H       
  43 H43           -0.3855     6.9478     1.7307 H       
  44 H44            2.1771     8.7745    -1.2762 H       
  45 H45            2.8303    10.3723     2.6362 H       
  46 H46            4.5548    11.8760     1.7291 H       
  47 H47           -2.8972     5.5358    -7.1597 H       
  48 H48           -4.9522     6.0561    -8.2653 H       
  49 H49           -6.3321     6.3440    -7.3512 H       
  50 H50           -6.3068     5.8219    -5.0880 H       
@<TRIPOS>BOND
   1    1    2 ar
   2    1    6 ar
   3    1   33 1
   4    2    3 ar
   5    2   34 1
   6    3    4 ar
   7    3   29 1
   8    4    5 ar
   9    4   35 1
  10    5    6 ar
  11    5   36 1
  12    6    7 1
  13    7    8 1
  14    8   10 ar
  15    8    9 ar
  16    9   13 ar
  17    9   37 1
  18   10   11 ar
  19   10   38 1
  20   11   12 ar
  21   11   39 1
  22   12   13 ar
  23   12   40 1
  24   13   14 1
  25   14   15 1
  26   14   41 1
  27   15   16 1
  28   15   17 2
  29   16   18 1
  30   16   42 1
  31   17   43 1
  32   18   20 ar
  33   18   19 ar
  34   19   23 ar
  35   19   44 1
  36   20   21 ar
  37   20   45 1
  38   21   22 ar
  39   21   46 1
  40   22   23 ar
  41   22   25 1
  42   23   24 1
  43   24   26 1
  44   24   27 1
  45   24   28 1
  46   29   30 1
  47   29   47 1
  48   30   31 1
  49   30   32 2
  50   31   48 1
  51   31   49 1
  52   32   50 1

#	End of record

