#	Name: ASD04590534
#	Creating user name:	WinNT
#	Creation time:	15. 06. 2019 20:51

#	Modifying user name:	WinNT
#	Modification time:	15. 06. 2019 20:51

#	Program:	/corina/corina34_cracker 3.40 0067  02.08.2006

@<TRIPOS>MOLECULE
ASD04590534
  58   63    0    0    0
SMALL
NO_CHARGES


@<TRIPOS>ATOM
   1 C1            -0.0167     1.3834     0.0096 C.ar    
   2 C2             0.0021    -0.0041     0.0020 C.ar    
   3 C3             2.3948     0.0191    -0.0203 C.ar    
   4 C4             2.3756     1.4249    -0.0130 C.ar    
   5 C5             1.1624     2.0987     0.0022 C.ar    
   6 N6             3.6952    -0.3636    -0.0350 N.2     
   7 C7             4.4664     0.6967    -0.0371 C.2     
   8 N8             3.6970     1.8290    -0.0238 N.pl3   
   9 C9             5.9437     0.6731    -0.0521 C.2     
  10 C10            6.7566    -0.4841    -0.0669 C.2     
  11 C11            8.0506    -0.0798    -0.0784 C.2     
  12 N12            8.0626     1.2790    -0.0712 N.pl3   
  13 N13            6.7358     1.7272    -0.0598 N.2     
  14 N14            6.3047    -1.8130    -0.0692 N.am    
  15 C15            7.1927    -2.8267    -0.0840 C.2     
  16 O16            8.3855    -2.5901    -0.0953 O.2     
  17 C17            1.1863    -0.6848    -0.0125 C.ar    
  18 C18            6.7178    -4.2231    -0.0865 C.2     
  19 C19            7.4895    -5.3507    -0.1007 C.2     
  20 C20           -1.2971    -0.7677     0.0104 C.3     
  21 N21           -1.7325    -1.0083    -1.3718 N.3     
  22 C22           -2.8623    -1.9482    -1.4122 C.3     
  23 C23           -0.6187    -1.4969    -2.1976 C.3     
  24 C24           -1.1003    -1.6771    -3.6396 C.3     
  25 O25           -2.2180    -2.5691    -3.6557 O.3     
  26 C26           -3.3214    -2.1239    -2.8621 C.3     
  27 C27            6.5415    -6.4102    -0.0955 C.2     
  28 N28            5.3598    -5.8465    -0.0795 N.2     
  29 O29            5.4378    -4.6404    -0.0693 O.3     
  30 C30            6.8333    -7.8658    -0.1060 C.ar    
  31 C31            5.7892    -8.7881    -0.0990 C.ar    
  32 C32            6.0661   -10.1402    -0.1088 C.ar    
  33 C33            7.3774   -10.5801    -0.1255 C.ar    
  34 C34            8.4178    -9.6686    -0.1324 C.ar    
  35 C35            8.1521    -8.3142    -0.1286 C.ar    
  36 H36           -0.9614     1.9069     0.0170 H       
  37 H37            1.1417     3.1785     0.0079 H       
  38 H38            4.0192     2.7439    -0.0221 H       
  39 H39            8.9178    -0.7234    -0.0910 H       
  40 H40            8.8530     1.8411    -0.0765 H       
  41 H41            5.3533    -2.0017    -0.0602 H       
  42 H42            1.1893    -1.7648    -0.0177 H       
  43 H43            8.5672    -5.4207    -0.1130 H       
  44 H44           -1.1545    -1.7218     0.5177 H       
  45 H45           -2.0563    -0.1872     0.5346 H       
  46 H46           -2.5487    -2.9117    -1.0105 H       
  47 H47           -3.6848    -1.5545    -0.8151 H       
  48 H48            0.1965    -0.7737    -2.1738 H       
  49 H49           -0.2692    -2.4532    -1.8084 H       
  50 H50           -1.3996    -0.7112    -4.0468 H       
  51 H51           -0.2938    -2.0932    -4.2434 H       
  52 H52           -4.1213    -2.8632    -2.9036 H       
  53 H53           -3.6852    -1.1711    -3.2467 H       
  54 H54            4.7650    -8.4457    -0.0856 H       
  55 H55            5.2575   -10.8561    -0.1030 H       
  56 H56            7.5897   -11.6390    -0.1327 H       
  57 H57            9.4399   -10.0174    -0.1451 H       
  58 H58            8.9652    -7.6034    -0.1340 H       
@<TRIPOS>BOND
   1    1    2 ar
   2    1    5 ar
   3    1   36 1
   4    2   17 ar
   5    2   20 1
   6    3    4 ar
   7    3    6 1
   8    3   17 ar
   9    4    5 ar
  10    4    8 1
  11    5   37 1
  12    6    7 2
  13    7    8 1
  14    7    9 1
  15    8   38 1
  16    9   10 1
  17    9   13 2
  18   10   11 2
  19   10   14 1
  20   11   12 1
  21   11   39 1
  22   12   13 1
  23   12   40 1
  24   14   15 am
  25   14   41 1
  26   15   16 2
  27   15   18 1
  28   17   42 1
  29   18   19 2
  30   18   29 1
  31   19   27 1
  32   19   43 1
  33   20   21 1
  34   20   44 1
  35   20   45 1
  36   21   22 1
  37   21   23 1
  38   22   26 1
  39   22   46 1
  40   22   47 1
  41   23   24 1
  42   23   48 1
  43   23   49 1
  44   24   25 1
  45   24   50 1
  46   24   51 1
  47   25   26 1
  48   26   52 1
  49   26   53 1
  50   27   28 2
  51   27   30 1
  52   28   29 1
  53   30   31 ar
  54   30   35 ar
  55   31   32 ar
  56   31   54 1
  57   32   33 ar
  58   32   55 1
  59   33   34 ar
  60   33   56 1
  61   34   35 ar
  62   34   57 1
  63   35   58 1

#	End of record

