#	Name: ASD05143015
#	Creating user name:	WinNT
#	Creation time:	15. 06. 2019 20:57

#	Modifying user name:	WinNT
#	Modification time:	15. 06. 2019 20:57

#	Program:	/corina/corina34_cracker 3.40 0067  02.08.2006

@<TRIPOS>MOLECULE
ASD05143015
 145  148    0    0    0
SMALL
NO_CHARGES


@<TRIPOS>ATOM
   1 C1            -2.1089     5.3939     7.5307 C.2     
   2 C2            -1.6238     4.6557     8.7516 C.3     
   3 N3            -1.2209     5.9304     6.6704 N.am    
   4 O4            -3.2984     5.5011     7.3196 O.2     
   5 C5            -1.6925     6.6480     5.4835 C.3     
   6 C6            -2.5254     5.7039     4.6141 C.3     
   7 C7            -2.5406     7.8190     5.9085 C.2     
   8 C8            -1.6330     4.5816     4.0804 C.3     
   9 C9            -2.4659     3.6375     3.2110 C.3     
  10 N10           -1.6114     2.5628     2.7000 N.pl3   
  11 C11           -2.1435     1.5880     1.8895 C.2     
  12 N12           -1.3416     0.5795     1.4100 N.pl3   
  13 N13           -3.4082     1.6201     1.5757 N.2     
  14 O14           -3.0338     7.8401     7.0163 O.2     
  15 N15           -2.7511     8.8427     5.0575 N.am    
  16 C16           -3.5756     9.9810     5.4706 C.3     
  17 C17           -2.6731    11.1721     5.7984 C.3     
  18 C18           -1.5174    10.7080     6.6868 C.3     
  19 C19           -0.3757    10.2386     5.8225 C.2     
  20 O20           -0.5778     9.5083     4.8755 O.2     
  21 N21            0.8911    10.6513     6.1249 N.am    
  22 C22            1.9550    10.1401     5.2308 C.3     
  23 C23            2.1057    11.1006     4.0495 C.3     
  24 C24            2.7698    10.3702     2.8806 C.3     
  25 C25            3.7285    11.3219     2.1622 C.3     
  26 N26            3.6778    11.0447     0.7126 N.am    
  27 C27            5.1308    11.1039     2.6692 C.2     
  28 N28            5.5177    11.6525     3.8379 N.am    
  29 O29            5.9113    10.4349     2.0256 O.2     
  30 C30            2.8519    11.8326    -0.0287 C.2     
  31 O31            2.2076    12.7143     0.4990 O.2     
  32 C32            2.7485    11.5960    -1.5134 C.3     
  33 N33            1.5340    12.2785    -2.0159 N.am    
  34 C34            3.9846    12.1663    -2.2119 C.3     
  35 C35            0.4812    11.4587    -2.3095 C.2     
  36 O36            0.5729    10.2584    -2.1622 O.2     
  37 C37           -0.7964    12.0743    -2.8193 C.3     
  38 N38           -1.9232    11.1810    -2.4840 N.am    
  39 C39           -1.0084    13.4374    -2.1576 C.3     
  40 C40           -3.0282    11.7690    -1.9485 C.2     
  41 O41           -3.0580    12.9669    -1.7613 O.2     
  42 C42           -4.2140    10.9100    -1.5922 C.3     
  43 C43            3.9373    11.8207    -3.6779 C.2     
  44 C44            3.2395    12.5677    -4.7272 C.ar    
  45 C45            3.4781    11.8701    -5.9252 C.ar    
  46 N46            4.2633    10.7831    -5.6128 N.pl3   
  47 C47            4.5315    10.7733    -4.2710 C.2     
  48 C48            2.4625    13.7278    -4.7394 C.ar    
  49 C49            1.9372    14.1800    -5.9168 C.ar    
  50 C50            2.1695    13.4949    -7.1018 C.ar    
  51 C51            2.9337    12.3489    -7.1126 C.ar    
  52 N52           -4.8005    11.4113    -0.3284 N.am    
  53 C53           -3.7607     9.4603    -1.4082 C.3     
  54 C54           -4.9591     8.5912    -1.1262 C.ar    
  55 C55           -5.9882     8.5137    -2.0461 C.ar    
  56 C56           -7.0876     7.7168    -1.7880 C.ar    
  57 C57           -7.1581     6.9966    -0.6089 C.ar    
  58 C58           -6.1279     7.0745     0.3113 C.ar    
  59 C59           -5.0264     7.8674     0.0496 C.ar    
  60 C60           -4.5133    10.3546     4.3514 C.2     
  61 N61           -3.9959    10.8421     3.1905 N.am    
  62 O62           -5.7117    10.2225     4.4831 O.2     
  63 C63           -4.9631    11.1911     2.1308 C.3     
  64 C64           -5.1851    12.7048     2.1176 C.3     
  65 C65           -4.4076    10.7505     0.8010 C.2     
  66 C66           -5.8491    13.1344     3.4274 C.3     
  67 N67           -6.0622    14.5878     3.4147 N.3     
  68 O68           -3.6260     9.8256     0.7346 O.2     
  69 C69           -1.0194    13.2699    -0.6369 C.3     
  70 C70           -1.3779    14.6041     0.0206 C.3     
  71 N71           -1.3885    14.4437     1.4768 N.pl3   
  72 C72           -1.6864    15.5157     2.2843 C.2     
  73 N73           -1.6962    15.3652     3.6509 N.pl3   
  74 N74           -1.9594    16.6748     1.7544 N.2     
  75 Cl75          -8.5389     5.9958    -0.2838 Cl      
  76 H76           -1.0304     5.3283     9.3710 H       
  77 H77           -2.4797     4.2961     9.3227 H       
  78 H78           -1.0104     3.8088     8.4442 H       
  79 H79           -0.2695     5.8412     6.8371 H       
  80 H80           -0.8366     7.0076     4.9124 H       
  81 H81           -3.3303     5.2753     5.2112 H       
  82 H82           -2.9497     6.2595     3.7778 H       
  83 H83           -0.8281     5.0101     3.4833 H       
  84 H84           -1.2088     4.0259     4.9167 H       
  85 H85           -3.2708     3.2089     3.8082 H       
  86 H86           -2.8902     4.1931     2.3747 H       
  87 H87           -0.6703     2.5389     2.9336 H       
  88 H88           -0.4004     0.5556     1.6435 H       
  89 H89           -1.7170    -0.1083     0.8381 H       
  90 H90           -3.7836     0.9324     1.0038 H       
  91 H91           -2.3567     8.8257     4.1714 H       
  92 H92           -4.1538     9.7093     6.3538 H       
  93 H93           -2.2751    11.5915     4.8743 H       
  94 H94           -3.2516    11.9327     6.3227 H       
  95 H95           -1.1835    11.5368     7.3111 H       
  96 H96           -1.8536     9.8879     7.3213 H       
  97 H97            1.0805    11.2386     6.8733 H       
  98 H98            2.8961    10.0827     5.7778 H       
  99 H99            1.6810     9.1505     4.8650 H       
 100 H100           1.1223    11.4573     3.7435 H       
 101 H101           2.7235    11.9480     4.3467 H       
 102 H102           3.3251     9.5112     3.2573 H       
 103 H103           2.0046    10.0302     2.1827 H       
 104 H104           3.4271    12.3528     2.3477 H       
 105 H105           4.2055    10.3375     0.3096 H       
 106 H106           4.8935    12.1876     4.3527 H       
 107 H107           6.4203    11.5122     4.1643 H       
 108 H108           2.6749    10.5263    -1.7093 H       
 109 H109           1.4892    13.2408    -2.1290 H       
 110 H110           4.0008    13.2498    -2.0943 H       
 111 H111           4.8831    11.7390    -1.7666 H       
 112 H112          -0.7367    12.1966    -3.9008 H       
 113 H113          -1.8784    10.2243    -2.6371 H       
 114 H114          -0.1993    14.1097    -2.4433 H       
 115 H115          -1.9606    13.8556    -2.4840 H       
 116 H116          -4.9574    10.9649    -2.3874 H       
 117 H117           4.5820    10.1245    -6.2496 H       
 118 H118           5.1266    10.0287    -3.7631 H       
 119 H119           2.2770    14.2655    -3.8213 H       
 120 H120           1.3363    15.0773    -5.9257 H       
 121 H121           1.7472    13.8645    -8.0245 H       
 122 H122           3.1089    11.8232    -8.0397 H       
 123 H123          -5.4202    12.1571    -0.3040 H       
 124 H124          -3.2677     9.1156    -2.3171 H       
 125 H125          -3.0640     9.4008    -0.5720 H       
 126 H126          -5.9332     9.0763    -2.9663 H       
 127 H127          -7.8916     7.6566    -2.5066 H       
 128 H128          -6.1823     6.5125     1.2320 H       
 129 H129          -4.2221     7.9283     0.7679 H       
 130 H130          -3.0405    10.9546     3.0659 H       
 131 H131          -5.9098    10.6848     2.3192 H       
 132 H132          -4.2258    13.2118     2.0132 H       
 133 H133          -5.8294    12.9703     1.2795 H       
 134 H134          -6.8083    12.6274     3.5317 H       
 135 H135          -5.2047    12.8689     4.2655 H       
 136 H136          -6.5000    14.8965     4.2698 H       
 137 H137          -5.1955    15.0789     3.2544 H       
 138 H138          -1.7582    12.5180    -0.3595 H       
 139 H139          -0.0330    12.9520    -0.2992 H       
 140 H140          -0.6392    15.3560    -0.2568 H       
 141 H141          -2.3644    14.9220    -0.3170 H       
 142 H142          -1.1853    13.5811     1.8712 H       
 143 H143          -1.4930    14.5026     4.0453 H       
 144 H144          -1.9064    16.1216     4.2206 H       
 145 H145          -2.1696    17.4312     2.3241 H       
@<TRIPOS>BOND
   1    1    2 1
   2    1    3 am
   3    1    4 2
   4    2   76 1
   5    2   77 1
   6    2   78 1
   7    3    5 1
   8    3   79 1
   9    5    6 1
  10    5    7 1
  11    5   80 1
  12    6    8 1
  13    6   81 1
  14    6   82 1
  15    7   14 2
  16    7   15 am
  17    8    9 1
  18    8   83 1
  19    8   84 1
  20    9   10 1
  21    9   85 1
  22    9   86 1
  23   10   11 1
  24   10   87 1
  25   11   12 1
  26   11   13 2
  27   12   88 1
  28   12   89 1
  29   13   90 1
  30   15   16 1
  31   15   91 1
  32   16   17 1
  33   16   60 1
  34   16   92 1
  35   17   18 1
  36   17   93 1
  37   17   94 1
  38   18   19 1
  39   18   95 1
  40   18   96 1
  41   19   20 2
  42   19   21 am
  43   21   22 1
  44   21   97 1
  45   22   23 1
  46   22   98 1
  47   22   99 1
  48   23   24 1
  49   23  100 1
  50   23  101 1
  51   24   25 1
  52   24  102 1
  53   24  103 1
  54   25   26 1
  55   25   27 1
  56   25  104 1
  57   26   30 am
  58   26  105 1
  59   27   28 am
  60   27   29 2
  61   28  106 1
  62   28  107 1
  63   30   31 2
  64   30   32 1
  65   32   33 1
  66   32   34 1
  67   32  108 1
  68   33   35 am
  69   33  109 1
  70   34   43 1
  71   34  110 1
  72   34  111 1
  73   35   36 2
  74   35   37 1
  75   37   38 1
  76   37   39 1
  77   37  112 1
  78   38   40 am
  79   38  113 1
  80   39   69 1
  81   39  114 1
  82   39  115 1
  83   40   41 2
  84   40   42 1
  85   42   52 1
  86   42   53 1
  87   42  116 1
  88   43   44 1
  89   43   47 2
  90   44   45 ar
  91   44   48 ar
  92   45   46 1
  93   45   51 ar
  94   46   47 1
  95   46  117 1
  96   47  118 1
  97   48   49 ar
  98   48  119 1
  99   49   50 ar
 100   49  120 1
 101   50   51 ar
 102   50  121 1
 103   51  122 1
 104   52   65 am
 105   52  123 1
 106   53   54 1
 107   53  124 1
 108   53  125 1
 109   54   55 ar
 110   54   59 ar
 111   55   56 ar
 112   55  126 1
 113   56   57 ar
 114   56  127 1
 115   57   58 ar
 116   57   75 1
 117   58   59 ar
 118   58  128 1
 119   59  129 1
 120   60   61 am
 121   60   62 2
 122   61   63 1
 123   61  130 1
 124   63   64 1
 125   63   65 1
 126   63  131 1
 127   64   66 1
 128   64  132 1
 129   64  133 1
 130   65   68 2
 131   66   67 1
 132   66  134 1
 133   66  135 1
 134   67  136 1
 135   67  137 1
 136   69   70 1
 137   69  138 1
 138   69  139 1
 139   70   71 1
 140   70  140 1
 141   70  141 1
 142   71   72 1
 143   71  142 1
 144   72   73 1
 145   72   74 2
 146   73  143 1
 147   73  144 1
 148   74  145 1

#	End of record

