#	Name: ASD01028287
#	Creating user name:	WinNT
#	Creation time:	15. 06. 2019 18:56

#	Modifying user name:	WinNT
#	Modification time:	15. 06. 2019 18:56

#	Program:	/corina/corina34_cracker 3.40 0067  02.08.2006

@<TRIPOS>MOLECULE
ASD01028287
  53   56    0    0    0
SMALL
NO_CHARGES


@<TRIPOS>ATOM
   1 C1            -0.0166     1.3719     0.0096 C.ar    
   2 C2             0.0021    -0.0041     0.0020 C.ar    
   3 C3             1.1750     2.1035     0.0021 C.ar    
   4 C4             2.3797     1.4715    -0.0128 C.ar    
   5 C5             2.4326     0.0695    -0.0208 C.ar    
   6 C6             1.2322    -0.6815    -0.0134 C.ar    
   7 C7             3.6676    -0.6170    -0.0367 C.ar    
   8 C8             3.6411    -2.0003    -0.0444 C.ar    
   9 C9             2.4221    -2.6660    -0.0364 C.ar    
  10 N10            1.2804    -2.0188    -0.0211 N.ar    
  11 O11            4.8427     0.0593    -0.0447 O.3     
  12 C12            6.0400    -0.7207    -0.0607 C.3     
  13 C13            7.2364     0.1957    -0.0676 C.2     
  14 N14            7.8882     0.6806     1.0284 N.pl3   
  15 C15            8.9053     1.4658     0.5428 C.2     
  16 N16            8.8250     1.4215    -0.7771 N.2     
  17 N17            7.8433     0.6670    -1.1245 N.2     
  18 C18            7.6996     0.5194     2.3631 C.2     
  19 C19            8.5339     1.1477     3.2639 C.2     
  20 C20            9.6238     1.9889     2.7636 C.2     
  21 C21            9.7854     2.1279     1.4248 C.2     
  22 C22            8.3316     0.9758     4.7082 C.2     
  23 O23           -1.2065     2.0271     0.0188 O.3     
  24 C24           -1.1606     3.4553     0.0263 C.3     
  25 O25            7.4266     0.2780     5.1150 O.2     
  26 C26            9.2482     1.6663     5.6850 C.3     
  27 C27            8.8223     1.3234     7.1139 C.3     
  28 C28            9.7530     2.0244     8.1056 C.3     
  29 N29            9.3441     1.6951     9.4776 N.3     
  30 C30           10.2173     2.3523    10.4592 C.3     
  31 H31           -0.9239    -0.5598     0.0082 H       
  32 H32            1.1387     3.1829     0.0079 H       
  33 H33            3.2932     2.0476    -0.0188 H       
  34 H34            4.5646    -2.5602    -0.0569 H       
  35 H35            2.4134    -3.7460    -0.0425 H       
  36 H36            6.0728    -1.3543     0.8256 H       
  37 H37            6.0552    -1.3447    -0.9543 H       
  38 H38            6.8928    -0.1031     2.7209 H       
  39 H39           10.2891     2.4902     3.4510 H       
  40 H40           10.5827     2.7437     1.0354 H       
  41 H41           -2.1761     3.8514     0.0333 H       
  42 H42           -0.6312     3.7971     0.9157 H       
  43 H43           -0.6396     3.8068    -0.8642 H       
  44 H44           10.2725     1.3316     5.5209 H       
  45 H45            9.1904     2.7447     5.5375 H       
  46 H46            7.7981     1.6581     7.2780 H       
  47 H47            8.8802     0.2449     7.2614 H       
  48 H48           10.7773     1.6897     7.9415 H       
  49 H49            9.6951     3.1028     7.9581 H       
  50 H50            8.3772     1.9370     9.6346 H       
  51 H51           11.2448     2.0199    10.3115 H       
  52 H52           10.1626     3.4330    10.3281 H       
  53 H53            9.8924     2.0916    11.4665 H       
@<TRIPOS>BOND
   1    1    2 ar
   2    1    3 ar
   3    1   23 1
   4    2    6 ar
   5    2   31 1
   6    3    4 ar
   7    3   32 1
   8    4    5 ar
   9    4   33 1
  10    5    6 ar
  11    5    7 ar
  12    6   10 ar
  13    7    8 ar
  14    7   11 1
  15    8    9 ar
  16    8   34 1
  17    9   10 ar
  18    9   35 1
  19   11   12 1
  20   12   13 1
  21   12   36 1
  22   12   37 1
  23   13   14 1
  24   13   17 2
  25   14   15 1
  26   14   18 1
  27   15   16 2
  28   15   21 1
  29   16   17 1
  30   18   19 2
  31   18   38 1
  32   19   20 1
  33   19   22 1
  34   20   21 2
  35   20   39 1
  36   21   40 1
  37   22   25 2
  38   22   26 1
  39   23   24 1
  40   24   41 1
  41   24   42 1
  42   24   43 1
  43   26   27 1
  44   26   44 1
  45   26   45 1
  46   27   28 1
  47   27   46 1
  48   27   47 1
  49   28   29 1
  50   28   48 1
  51   28   49 1
  52   29   30 1
  53   29   50 1
  54   30   51 1
  55   30   52 1
  56   30   53 1

#	End of record

