#	Name: ASD01812357
#	Creating user name:	WinNT
#	Creation time:	15. 06. 2019 19:28

#	Modifying user name:	WinNT
#	Modification time:	15. 06. 2019 19:28

#	Program:	/corina/corina34_cracker 3.40 0067  02.08.2006

@<TRIPOS>MOLECULE
ASD01812357
  55   58    0    0    0
SMALL
NO_CHARGES


@<TRIPOS>ATOM
   1 C1            -0.0170     1.4008     0.0097 C.ar    
   2 C2             0.0021    -0.0041     0.0020 C.ar    
   3 N3            -1.1783    -0.7153     0.0085 N.pl3   
   4 C4            -2.3807    -0.1260     0.0218 C.2     
   5 C5            -2.5270     1.2466     0.0304 C.2     
   6 C6            -1.3208     2.0901     0.0197 C.2     
   7 C7             1.1788     2.1190     0.0022 C.ar    
   8 C8             2.3785     1.4429    -0.0129 C.ar    
   9 C9             2.3999     0.0553    -0.0205 C.ar    
  10 C10            1.2270    -0.6667    -0.0127 C.ar    
  11 O11           -1.3962     3.3062     0.0272 O.2     
  12 C12           -3.8646     1.8554     0.0444 C.2     
  13 O13           -3.9943     3.1972     0.0528 O.3     
  14 O14           -4.8539     1.1491     0.0484 O.2     
  15 C15           -1.1149    -2.1789     0.0001 C.3     
  16 C16           -1.0808    -2.6884     1.4179 C.ar    
  17 C17           -2.2634    -2.9733     2.0764 C.ar    
  18 C18            0.1332    -2.8749     2.0541 C.ar    
  19 C19            0.1704    -3.3421     3.3522 C.ar    
  20 C20           -1.0180    -3.6257     4.0221 C.ar    
  21 C21           -2.2380    -3.4401     3.3750 C.ar    
  22 C22           -0.9843    -4.1287     5.4178 C.ar    
  23 C23            0.2357    -4.3192     6.0630 C.ar    
  24 C24            0.2611    -4.7875     7.3613 C.ar    
  25 C25           -0.9214    -5.0678     8.0213 C.ar    
  26 C26           -2.1357    -4.8809     7.3852 C.ar    
  27 C27           -2.1731    -4.4069     6.0897 C.ar    
  28 C28           -3.4201    -5.1890     8.1108 C.3     
  29 N29           -3.8837    -3.9874     8.8174 N.3     
  30 C30           -5.2444    -4.1751     9.3382 C.3     
  31 C31           -2.9544    -3.6180     9.8934 C.3     
  32 H32           -3.2655    -0.7452     0.0254 H       
  33 H33            1.1639     3.1989     0.0078 H       
  34 H34            3.3067     1.9950    -0.0191 H       
  35 H35            3.3467    -0.4642    -0.0327 H       
  36 H36            1.2571    -1.7463    -0.0192 H       
  37 H37           -4.8942     3.5512     0.0619 H       
  38 H38           -1.9928    -2.5776    -0.5082 H       
  39 H39           -0.2146    -2.5006    -0.5234 H       
  40 H40           -3.2084    -2.8298     1.5736 H       
  41 H41            1.0538    -2.6548     1.5339 H       
  42 H42            1.1189    -3.4880     3.8477 H       
  43 H43           -3.1621    -3.6581     3.8897 H       
  44 H44            1.1597    -4.1013     5.5482 H       
  45 H45            1.2063    -4.9355     7.8625 H       
  46 H46           -0.8969    -5.4343     9.0369 H       
  47 H47           -3.1215    -4.2613     5.5941 H       
  48 H48           -4.1771    -5.5026     7.3920 H       
  49 H49           -3.2480    -5.9897     8.8300 H       
  50 H50           -5.2549    -5.0150    10.0329 H       
  51 H51           -5.5630    -3.2708     9.8566 H       
  52 H52           -5.9250    -4.3788     8.5115 H       
  53 H53           -1.9702    -3.4168     9.4704 H       
  54 H54           -3.3216    -2.7255    10.4001 H       
  55 H55           -2.8820    -4.4377    10.6083 H       
@<TRIPOS>BOND
   1    1    2 ar
   2    1    7 ar
   3    1    6 1
   4    2    3 1
   5    2   10 ar
   6    3    4 1
   7    3   15 1
   8    4    5 2
   9    4   32 1
  10    5    6 1
  11    5   12 1
  12    6   11 2
  13    7    8 ar
  14    7   33 1
  15    8    9 ar
  16    8   34 1
  17    9   10 ar
  18    9   35 1
  19   10   36 1
  20   12   13 1
  21   12   14 2
  22   13   37 1
  23   15   16 1
  24   15   38 1
  25   15   39 1
  26   16   17 ar
  27   16   18 ar
  28   17   21 ar
  29   17   40 1
  30   18   19 ar
  31   18   41 1
  32   19   20 ar
  33   19   42 1
  34   20   21 ar
  35   20   22 1
  36   21   43 1
  37   22   23 ar
  38   22   27 ar
  39   23   24 ar
  40   23   44 1
  41   24   25 ar
  42   24   45 1
  43   25   26 ar
  44   25   46 1
  45   26   27 ar
  46   26   28 1
  47   27   47 1
  48   28   29 1
  49   28   48 1
  50   28   49 1
  51   29   30 1
  52   29   31 1
  53   30   50 1
  54   30   51 1
  55   30   52 1
  56   31   53 1
  57   31   54 1
  58   31   55 1

#	End of record

