#	Name: ASD01911926
#	Creating user name:	WinNT
#	Creation time:	15. 06. 2019 19:58

#	Modifying user name:	WinNT
#	Modification time:	15. 06. 2019 19:58

#	Program:	/corina/corina34_cracker 3.40 0067  02.08.2006

@<TRIPOS>MOLECULE
ASD01911926
  34   36    0    0    0
SMALL
NO_CHARGES


@<TRIPOS>ATOM
   1 C1             0.6069     0.6676     0.4388 C.ar    
   2 C2            -0.0798     0.0134    -0.5790 C.ar    
   3 C3             0.4117     0.1145    -1.8765 C.ar    
   4 N4             1.5065     0.8240    -2.0949 N.ar    
   5 C5             2.1290     1.4295    -1.1035 C.ar    
   6 N6             1.6949     1.3576     0.1387 N.ar    
   7 O7            -1.2014    -0.7063    -0.3125 O.3     
   8 C8            -1.0958    -2.0608    -0.2714 C.ar    
   9 C9            -2.2179    -2.8379    -0.0123 C.ar    
  10 C10           -2.1106    -4.2183     0.0296 C.ar    
  11 C11           -0.8858    -4.8253    -0.1869 C.ar    
  12 C12            0.2373    -4.0511    -0.4464 C.ar    
  13 C13            0.1303    -2.6677    -0.4935 C.ar    
  14 N14            1.4754    -4.6652    -0.6652 N.am    
  15 C15            1.5329    -5.8716    -1.2632 C.2     
  16 C16            2.8327    -6.5686    -1.4014 C.ar    
  17 O17            0.5184    -6.3877    -1.6891 O.2     
  18 C18            2.8853    -7.8144    -2.0200 C.ar    
  19 F19           -3.2024    -4.9728     0.2825 F       
  20 C20            4.1118    -8.4552    -2.1419 C.ar    
  21 C21            5.2411    -7.8229    -1.6387 C.ar    
  22 C22            5.1122    -6.5831    -1.0356 C.ar    
  23 N23            3.9385    -5.9970    -0.9388 N.ar    
  24 F24           -3.4143    -2.2470     0.1992 F       
  25 F25            4.2037    -9.6653    -2.7356 F       
  26 H26            0.2543     0.6166     1.4584 H       
  27 H27           -0.0932    -0.3794    -2.6936 H       
  28 H28            3.0208     2.0008    -1.3152 H       
  29 H29           -0.8034    -5.9016    -0.1536 H       
  30 H30            1.0031    -2.0646    -0.6956 H       
  31 H31            2.2923    -4.2226    -0.3865 H       
  32 H32            1.9857    -8.2761    -2.3993 H       
  33 H33            6.2101    -8.2935    -1.7166 H       
  34 H34            5.9883    -6.0883    -0.6431 H       
@<TRIPOS>BOND
   1    1    2 ar
   2    1    6 ar
   3    1   26 1
   4    2    3 ar
   5    2    7 1
   6    3    4 ar
   7    3   27 1
   8    4    5 ar
   9    5    6 ar
  10    5   28 1
  11    7    8 1
  12    8    9 ar
  13    8   13 ar
  14    9   10 ar
  15    9   24 1
  16   10   11 ar
  17   10   19 1
  18   11   12 ar
  19   11   29 1
  20   12   13 ar
  21   12   14 1
  22   13   30 1
  23   14   15 am
  24   14   31 1
  25   15   16 1
  26   15   17 2
  27   16   18 ar
  28   16   23 ar
  29   18   20 ar
  30   18   32 1
  31   20   21 ar
  32   20   25 1
  33   21   22 ar
  34   21   33 1
  35   22   23 ar
  36   22   34 1

#	End of record

