#	Name: ASD02198018
#	Creating user name:	WinNT
#	Creation time:	15. 06. 2019 20:18

#	Modifying user name:	WinNT
#	Modification time:	15. 06. 2019 20:18

#	Program:	/corina/corina34_cracker 3.40 0067  02.08.2006

@<TRIPOS>MOLECULE
ASD02198018
  39   41    0    0    0
SMALL
NO_CHARGES


@<TRIPOS>ATOM
   1 N1             0.7399     1.3649     0.3977 N.am    
   2 N2             2.0675    -0.8902    -2.0552 N.pl3   
   3 C3             2.4744    -1.2159    -0.7831 C.2     
   4 C4             1.8339    -0.8128     0.3707 C.2     
   5 C5             0.6293     0.0220     0.3661 C.2     
   6 S6             3.8338    -2.1784    -0.4193 S.3     
   7 C7             3.5527    -2.0392     1.3087 C.2     
   8 C8             2.4364    -1.2713     1.5409 C.2     
   9 C9             4.3499    -2.6297     2.3077 C.2     
  10 O10            4.1429    -2.3758     3.4822 O.2     
  11 C11            5.4392    -3.5588     1.9323 C.ar    
  12 N12            1.9603    -0.9809     2.8086 N.pl3   
  13 O13           -0.4709    -0.4974     0.3338 O.2     
  14 C14            5.3526    -4.2999     0.7531 C.ar    
  15 C15            6.3713    -5.1643     0.4088 C.ar    
  16 C16            7.4769    -5.2973     1.2301 C.ar    
  17 C17            7.5687    -4.5653     2.4005 C.ar    
  18 C18            6.5597    -3.6929     2.7530 C.ar    
  19 C19            2.8665    -1.2256    -3.1518 C.ar    
  20 C20            2.2784    -1.6211    -4.3466 C.ar    
  21 C21            3.0709    -1.9513    -5.4283 C.ar    
  22 C22            4.4484    -1.8886    -5.3231 C.ar    
  23 C23            5.0371    -1.4957    -4.1350 C.ar    
  24 C24            4.2504    -1.1586    -3.0511 C.ar    
  25 H25            1.6168     1.7788     0.4235 H       
  26 H26           -0.0573     1.9175     0.3907 H       
  27 H27            1.2259    -0.4276    -2.1917 H       
  28 H28            2.4201    -1.3254     3.5901 H       
  29 H29            1.1670    -0.4329     2.9150 H       
  30 H30            4.4898    -4.1975     0.1116 H       
  31 H31            6.3055    -5.7385    -0.5035 H       
  32 H32            8.2714    -5.9758     0.9565 H       
  33 H33            8.4343    -4.6736     3.0373 H       
  34 H34            6.6327    -3.1217     3.6667 H       
  35 H35            1.2028    -1.6706    -4.4293 H       
  36 H36            2.6144    -2.2592    -6.3574 H       
  37 H37            5.0658    -2.1473    -6.1706 H       
  38 H38            6.1131    -1.4485    -4.0560 H       
  39 H39            4.7108    -0.8515    -2.1237 H       
@<TRIPOS>BOND
   1    1    5 am
   2    1   25 1
   3    1   26 1
   4    2    3 1
   5    2   19 1
   6    2   27 1
   7    3    4 2
   8    3    6 1
   9    4    5 1
  10    4    8 1
  11    5   13 2
  12    6    7 1
  13    7    8 2
  14    7    9 1
  15    8   12 1
  16    9   10 2
  17    9   11 1
  18   11   14 ar
  19   11   18 ar
  20   12   28 1
  21   12   29 1
  22   14   15 ar
  23   14   30 1
  24   15   16 ar
  25   15   31 1
  26   16   17 ar
  27   16   32 1
  28   17   18 ar
  29   17   33 1
  30   18   34 1
  31   19   20 ar
  32   19   24 ar
  33   20   21 ar
  34   20   35 1
  35   21   22 ar
  36   21   36 1
  37   22   23 ar
  38   22   37 1
  39   23   24 ar
  40   23   38 1
  41   24   39 1

#	End of record

