#	Name: ASD01330021
#	Creating user name:	WinNT
#	Creation time:	15. 06. 2019 19:16

#	Modifying user name:	WinNT
#	Modification time:	15. 06. 2019 19:16

#	Program:	/corina/corina34_cracker 3.40 0067  02.08.2006

@<TRIPOS>MOLECULE
ASD01330021
  29   29    0    0    0
SMALL
NO_CHARGES


@<TRIPOS>ATOM
   1 C1            -0.0187     1.5275     0.0104 C.3     
   2 C2             0.0021    -0.0041     0.0020 C.3     
   3 C3             0.6801    -0.5016     1.2823 C.3     
   4 C4            -0.0626     0.0627     2.4962 C.3     
   5 O5            -0.0716     1.4900     2.4262 O.3     
   6 C6            -0.7344     2.0135     1.2735 C.3     
   7 C7            -0.7067     3.5425     1.3194 C.3     
   8 O8            -1.4727     3.9996     2.4358 O.3     
   9 P9            -1.6608     5.5586     2.7909 P.3     
  10 O10           -2.2027     6.2711     1.6123 O.2     
  11 O11           -2.6834     5.7083     4.0254 O.3     
  12 O12           -0.2369     6.1930     3.1936 O.3     
  13 O13            1.3215     2.0234     0.0003 O.3     
  14 O14           -1.3370    -0.5000    -0.0535 O.3     
  15 O15            0.6406    -1.9295     1.3197 O.3     
  16 O16           -1.4066    -0.4227     2.5006 O.3     
  17 H17           -0.5477     1.8895    -0.8712 H       
  18 H18            0.5591    -0.3564    -0.8662 H       
  19 H19            1.7168    -0.1653     1.2997 H       
  20 H20            0.4412    -0.2532     3.4097 H       
  21 H21           -1.7684     1.6687     1.2608 H       
  22 H22            0.3233     3.8844     1.4211 H       
  23 H23           -1.1327     3.9415     0.3988 H       
  24 H24           -2.8444     6.6231     4.2941 H       
  25 H25            0.1778     5.7738     3.9600 H       
  26 H26            1.8363     1.7497    -0.7712 H       
  27 H27           -1.3990    -1.4650    -0.0617 H       
  28 H28            1.0533    -2.3140     2.1051 H       
  29 H29           -1.9372    -0.1048     3.2438 H       
@<TRIPOS>BOND
   1    1    2 1
   2    1   13 1
   3    1    6 1
   4    1   17 1
   5    2    3 1
   6    2   14 1
   7    2   18 1
   8    3   15 1
   9    3    4 1
  10    3   19 1
  11    4    5 1
  12    4   16 1
  13    4   20 1
  14    5    6 1
  15    6    7 1
  16    6   21 1
  17    7    8 1
  18    7   22 1
  19    7   23 1
  20    8    9 1
  21    9   10 2
  22    9   11 1
  23    9   12 1
  24   11   24 1
  25   12   25 1
  26   13   26 1
  27   14   27 1
  28   15   28 1
  29   16   29 1

#	End of record

