#	Name: ASD03090491
#	Creating user name:	WinNT
#	Creation time:	15. 06. 2019 20:28

#	Modifying user name:	WinNT
#	Modification time:	15. 06. 2019 20:28

#	Program:	/corina/corina34_cracker 3.40 0067  02.08.2006

@<TRIPOS>MOLECULE
ASD03090491
  36   38    0    0    0
SMALL
NO_CHARGES


@<TRIPOS>ATOM
   1 C1            -0.0187     1.5020     0.0192 C.2     
   2 C2             0.0008    -0.0048     0.0173 C.3     
   3 O3             1.0238     2.1221     0.0153 O.2     
   4 N4            -1.1946     2.1607     0.0195 N.am    
   5 C5            -2.1787     4.3016    -0.5316 C.ar    
   6 C6            -1.2154     3.5578     0.1330 C.ar    
   7 C7            -0.2681     4.2161     0.9156 C.ar    
   8 C8            -0.3263     5.5950     0.9995 C.ar    
   9 C9            -1.3215     6.2753     0.3048 C.ar    
  10 N10           -2.2052     5.6166    -0.4294 N.ar    
  11 S11           -1.4074     8.0324     0.4035 S.3     
  12 C12           -2.8328     8.4308    -0.6453 C.3     
  13 F13           -3.9762     7.8071    -0.1347 F       
  14 F14           -3.0259     9.8163    -0.6630 F       
  15 F15           -2.5955     7.9764    -1.9469 F       
  16 N16            5.3293    -1.8139     0.2652 N.pl3   
  17 C17            5.4950    -1.8695     1.6223 C.2     
  18 C18            4.3654    -1.4850     2.2373 C.2     
  19 C19            3.3972    -1.1564     1.1882 C.ar    
  20 C20            2.0750    -0.7076     1.1938 C.ar    
  21 C21            1.4280    -0.4887     0.0105 C.ar    
  22 C22            2.0747    -0.7088    -1.1981 C.ar    
  23 C23            3.3787    -1.1518    -1.2267 C.ar    
  24 C24            4.0568    -1.3813    -0.0337 C.ar    
  25 H25           -0.5044    -0.3758     0.9091 H       
  26 H26           -0.5121    -0.3738    -0.8709 H       
  27 H27           -2.0265     1.6681    -0.0589 H       
  28 H28           -2.9131     3.7988    -1.1434 H       
  29 H29            0.4933     3.6619     1.4444 H       
  30 H30            0.3916     6.1372     1.5971 H       
  31 H31            6.0085    -2.0414    -0.3889 H       
  32 H32            6.4003    -2.1774     2.1243 H       
  33 H33            4.2015    -1.4287     3.3033 H       
  34 H34            1.5652    -0.5351     2.1302 H       
  35 H35            1.5501    -0.5312    -2.1252 H       
  36 H36            3.8730    -1.3205    -2.1720 H       
@<TRIPOS>BOND
   1    1    2 1
   2    1    3 2
   3    1    4 am
   4    2   21 1
   5    2   25 1
   6    2   26 1
   7    4    6 1
   8    4   27 1
   9    5    6 ar
  10    5   10 ar
  11    5   28 1
  12    6    7 ar
  13    7    8 ar
  14    7   29 1
  15    8    9 ar
  16    8   30 1
  17    9   10 ar
  18    9   11 1
  19   11   12 1
  20   12   13 1
  21   12   14 1
  22   12   15 1
  23   16   17 1
  24   16   24 1
  25   16   31 1
  26   17   18 2
  27   17   32 1
  28   18   19 1
  29   18   33 1
  30   19   20 ar
  31   19   24 ar
  32   20   21 ar
  33   20   34 1
  34   21   22 ar
  35   22   23 ar
  36   22   35 1
  37   23   24 ar
  38   23   36 1

#	End of record

