#	Name: ASD01881330
#	Creating user name:	WinNT
#	Creation time:	15. 06. 2019 19:42

#	Modifying user name:	WinNT
#	Modification time:	15. 06. 2019 19:42

#	Program:	/corina/corina34_cracker 3.40 0067  02.08.2006

@<TRIPOS>MOLECULE
ASD01881330
  53   57    0    0    0
SMALL
NO_CHARGES


@<TRIPOS>ATOM
   1 C1            -0.2438     1.1109    -0.2201 C.2     
   2 C2            -0.1485    -0.2852    -0.1341 C.2     
   3 C3            -1.3323    -1.0485    -0.0644 C.2     
   4 C4            -2.5412    -0.4561    -0.0796 C.2     
   5 N5            -2.6799     0.8988    -0.1623 N.pl3   
   6 C6            -1.5785     1.7134    -0.2279 C.2     
   7 C7            -3.7800     1.7158    -0.1940 C.2     
   8 C8            -3.3308     2.9856    -0.2822 C.2     
   9 N9            -1.9940     2.9651    -0.3008 N.2     
  10 C10            1.1737    -0.9476    -0.1170 C.ar    
  11 C11            1.5871    -1.6443     1.0133 C.ar    
  12 C12            2.8355    -2.2640     1.0162 C.ar    
  13 C13            3.6652    -2.1813    -0.1185 C.ar    
  14 C14            3.2307    -1.4780    -1.2398 C.ar    
  15 C15            2.0063    -0.8774    -1.2420 C.ar    
  16 C16           -5.2211     1.2784    -0.1407 C.3     
  17 C17            3.5743    -3.0587     2.0013 C.2     
  18 C18            4.7449    -3.3926     1.4360 C.2     
  19 N19            4.8163    -2.8772     0.1704 N.pl3   
  20 C20            5.9503    -3.0428    -0.7422 C.3     
  21 C21            7.2078    -2.4464    -0.1066 C.3     
  22 C22            6.1733    -4.5319    -1.0137 C.3     
  23 C23            6.4694    -5.2517     0.3035 C.3     
  24 C24            7.7269    -4.6553     0.9391 C.3     
  25 C25            7.5039    -3.1662     1.2106 C.3     
  26 O26            8.0035    -5.3276     2.1694 O.3     
  27 C27           -5.7711     1.1603    -1.5636 C.3     
  28 F28           -5.0233     0.2165    -2.2758 F       
  29 F29           -7.1089     0.7541    -1.5141 F       
  30 F30           -5.6840     2.4021    -2.2018 F       
  31 C31            0.9317     1.9256    -0.2923 C.1     
  32 N32            1.8642     2.5719    -0.3495 N.1     
  33 H33           -1.2681    -2.1246     0.0017 H       
  34 H34           -3.4271    -1.0714    -0.0251 H       
  35 H35           -3.9481     3.8707    -0.3270 H       
  36 H36            0.9469    -1.7043     1.8810 H       
  37 H37            3.8641    -1.4117    -2.1121 H       
  38 H38            1.6788    -0.3346    -2.1163 H       
  39 H39           -5.2889     0.3108     0.3565 H       
  40 H40           -5.8038     2.0137     0.4142 H       
  41 H41            3.2405    -3.3247     2.9934 H       
  42 H42            5.5165    -3.9812     1.9100 H       
  43 H43            5.7393    -2.5300    -1.6806 H       
  44 H44            8.0515    -2.5695    -0.7856 H       
  45 H45            7.0489    -1.3855     0.0868 H       
  46 H46            5.2775    -4.9568    -1.4665 H       
  47 H47            7.0170    -4.6551    -1.6927 H       
  48 H48            5.6257    -5.1285     0.9826 H       
  49 H49            6.6283    -6.3126     0.1101 H       
  50 H50            8.5706    -4.7785     0.2601 H       
  51 H51            8.3997    -2.7413     1.6634 H       
  52 H52            6.6602    -3.0430     1.8896 H       
  53 H53            8.7892    -5.0004     2.6284 H       
@<TRIPOS>BOND
   1    1    2 2
   2    1   31 1
   3    1    6 1
   4    2    3 1
   5    2   10 1
   6    3    4 2
   7    3   33 1
   8    4    5 1
   9    4   34 1
  10    5    6 1
  11    5    7 1
  12    6    9 2
  13    7    8 2
  14    7   16 1
  15    8    9 1
  16    8   35 1
  17   10   11 ar
  18   10   15 ar
  19   11   12 ar
  20   11   36 1
  21   12   13 ar
  22   12   17 1
  23   13   14 ar
  24   13   19 1
  25   14   15 ar
  26   14   37 1
  27   15   38 1
  28   16   27 1
  29   16   39 1
  30   16   40 1
  31   17   18 2
  32   17   41 1
  33   18   19 1
  34   18   42 1
  35   19   20 1
  36   20   21 1
  37   20   22 1
  38   20   43 1
  39   21   25 1
  40   21   44 1
  41   21   45 1
  42   22   23 1
  43   22   46 1
  44   22   47 1
  45   23   24 1
  46   23   48 1
  47   23   49 1
  48   24   25 1
  49   24   26 1
  50   24   50 1
  51   25   51 1
  52   25   52 1
  53   26   53 1
  54   27   28 1
  55   27   29 1
  56   27   30 1
  57   31   32 3

#	End of record

