#	Name: ASD02039358
#	Creating user name:	WinNT
#	Creation time:	15. 06. 2019 20:18

#	Modifying user name:	WinNT
#	Modification time:	15. 06. 2019 20:18

#	Program:	/corina/corina34_cracker 3.40 0067  02.08.2006

@<TRIPOS>MOLECULE
ASD02039358
  47   49    0    0    0
SMALL
NO_CHARGES


@<TRIPOS>ATOM
   1 C1            -0.1345     1.5596    -0.1872 C.ar    
   2 C2            -0.1559     0.1782    -0.0590 C.ar    
   3 C3            -1.3625    -0.4920    -0.1423 C.ar    
   4 C4            -2.5119     1.4849    -0.4579 C.ar    
   5 C5            -1.3324     2.2231    -0.3900 C.ar    
   6 C6            -3.8036     2.1808    -0.6746 C.ar    
   7 C7             1.1630     2.3213    -0.1015 C.3     
   8 N8             1.8164     2.3220    -1.4128 N.am    
   9 C9             1.4076     3.2892    -2.4343 C.3     
  10 C10            2.7936     1.4329    -1.6792 C.2     
  11 C11            3.1433     0.4029    -0.6856 C.2     
  12 C12            4.1488    -0.5129    -0.7932 C.2     
  13 N13            2.5275     0.1959     0.5064 N.2     
  14 C14            3.1089    -0.7980     1.1136 C.2     
  15 N15            4.1202    -1.2619     0.3341 N.pl3   
  16 O16            3.3866     1.4808    -2.7400 O.2     
  17 C17            5.0183    -2.3738     0.6555 C.3     
  18 C18           -4.9885     1.4496    -0.7438 C.ar    
  19 C19            2.5763     4.2262    -2.7463 C.3     
  20 C20            0.9973     2.5447    -3.7064 C.3     
  21 N21           -2.4879     0.1632    -0.3418 N.ar    
  22 C22           -3.8369     3.5679    -0.8040 C.ar    
  23 C23           -5.0418     4.2114    -1.0057 C.ar    
  24 C24           -6.2168     3.4791    -1.0795 C.ar    
  25 C25           -6.1880     2.1003    -0.9456 C.ar    
  26 Cl26          -5.0856     5.9394    -1.1666 Cl      
  27 F27           -7.3939     4.1122    -1.2766 F       
  28 H28            0.7612    -0.3684     0.1041 H       
  29 H29           -1.3826    -1.5673    -0.0429 H       
  30 H30           -1.3534     3.2987    -0.4846 H       
  31 H31            0.9622     3.3479     0.2049 H       
  32 H32            1.8163     1.8451     0.6296 H       
  33 H33            0.5632     3.8718    -2.0659 H       
  34 H34            4.8357    -0.6200    -1.6196 H       
  35 H35            2.8336    -1.1887     2.0820 H       
  36 H36            4.5914    -3.3050     0.2830 H       
  37 H37            5.9876    -2.2052     0.1864 H       
  38 H38            5.1441    -2.4385     1.7363 H       
  39 H39           -4.9673     0.3748    -0.6399 H       
  40 H40            3.4480     3.6372    -3.0312 H       
  41 H41            2.3015     4.8890    -3.5668 H       
  42 H42            2.8118     4.8198    -1.8630 H       
  43 H43            0.1124     1.9410    -3.5046 H       
  44 H44            0.7738     3.2654    -4.4931 H       
  45 H45            1.8132     1.8974    -4.0278 H       
  46 H46           -2.9219     4.1387    -0.7462 H       
  47 H47           -7.1055     1.5337    -1.0041 H       
@<TRIPOS>BOND
   1    1    2 ar
   2    1    7 1
   3    1    5 ar
   4    2    3 ar
   5    2   28 1
   6    3   21 ar
   7    3   29 1
   8    4    5 ar
   9    4    6 1
  10    4   21 ar
  11    5   30 1
  12    6   18 ar
  13    6   22 ar
  14    7    8 1
  15    7   31 1
  16    7   32 1
  17    8    9 1
  18    8   10 am
  19    9   20 1
  20    9   19 1
  21    9   33 1
  22   10   11 1
  23   10   16 2
  24   11   12 2
  25   11   13 1
  26   12   15 1
  27   12   34 1
  28   13   14 2
  29   14   15 1
  30   14   35 1
  31   15   17 1
  32   17   36 1
  33   17   37 1
  34   17   38 1
  35   18   25 ar
  36   18   39 1
  37   19   40 1
  38   19   41 1
  39   19   42 1
  40   20   43 1
  41   20   44 1
  42   20   45 1
  43   22   23 ar
  44   22   46 1
  45   23   24 ar
  46   23   26 1
  47   24   25 ar
  48   24   27 1
  49   25   47 1

#	End of record

