#	Name: ASD01880841
#	Creating user name:	WinNT
#	Creation time:	15. 06. 2019 19:41

#	Modifying user name:	WinNT
#	Modification time:	15. 06. 2019 19:41

#	Program:	/corina/corina34_cracker 3.40 0067  02.08.2006

@<TRIPOS>MOLECULE
ASD01880841
  64   67    0    0    0
SMALL
NO_CHARGES


@<TRIPOS>ATOM
   1 N1             0.0645     1.3750    -0.6397 N.ar    
   2 C2             0.1102     0.0791    -0.8728 C.ar    
   3 N3             1.2172    -0.6174    -0.7103 N.ar    
   4 C4             2.3355    -0.0351    -0.3031 C.ar    
   5 C5             2.3333     1.3233    -0.0471 C.ar    
   6 C6             1.1452     2.0292    -0.2289 C.ar    
   7 C7             3.5841     2.0235     0.4180 C.3     
   8 O8             4.3203     2.4867    -0.7157 O.3     
   9 C9             5.4820     3.1438    -0.4695 C.ar    
  10 C10            6.2482     3.6215    -1.5282 C.ar    
  11 C11            7.4228     4.2864    -1.2778 C.ar    
  12 C12            7.8559     4.4874     0.0370 C.ar    
  13 C13            7.0823     4.0058     1.0968 C.ar    
  14 C14            5.9023     3.3438     0.8400 C.ar    
  15 C15            8.4637     4.9157    -2.1698 C.3     
  16 N16            9.4872     5.4707    -1.2767 N.am    
  17 C17            9.1326     5.2213    -0.0045 C.2     
  18 O18            9.7740     5.5544     0.9732 O.2     
  19 O19            1.0937     3.3624     0.0088 O.3     
  20 C20           -0.1134     3.9802    -0.0809 C.ar    
  21 C21           -1.0446     3.8374     0.9377 C.ar    
  22 C22           -2.2707     4.4669     0.8443 C.ar    
  23 C23           -2.5703     5.2388    -0.2631 C.ar    
  24 C24           -1.6441     5.3827    -1.2795 C.ar    
  25 C25           -0.4146     4.7596    -1.1886 C.ar    
  26 C26            7.0788     5.5915     3.0032 C.3     
  27 C27            7.5366     4.2145     2.5184 C.3     
  28 C28           10.4008     7.6770    -1.8050 C.3     
  29 C29           10.6968     6.1794    -1.7018 C.3     
  30 C30            4.3847    -0.8587    -1.4308 C.3     
  31 C31            3.5941    -0.8437    -0.1210 C.3     
  32 C32           -1.1959    -0.6055    -2.8664 C.3     
  33 C33           -1.1377    -0.6263    -1.3377 C.3     
  34 H34            3.3133     2.8717     1.0467 H       
  35 H35            4.1981     1.3283     0.9906 H       
  36 H36            5.9194     3.4692    -2.5456 H       
  37 H37            5.3048     2.9722     1.6593 H       
  38 H38            8.9044     4.1613    -2.8216 H       
  39 H39            8.0154     5.7108    -2.7656 H       
  40 H40           -0.8112     3.2343     1.8027 H       
  41 H41           -2.9960     4.3558     1.6368 H       
  42 H42           -3.5296     5.7298    -0.3343 H       
  43 H43           -1.8807     5.9859    -2.1436 H       
  44 H44            0.3087     4.8726    -1.9826 H       
  45 H45            7.5115     6.3632     2.3666 H       
  46 H46            5.9913     5.6499     2.9570 H       
  47 H47            7.4074     5.7424     4.0315 H       
  48 H48            7.1039     3.4428     3.1551 H       
  49 H49            8.6241     4.1561     2.5646 H       
  50 H50           10.0825     8.0523    -0.8324 H       
  51 H51           11.3007     8.2043    -2.1213 H       
  52 H52            9.6080     7.8411    -2.5349 H       
  53 H53           11.4896     6.0153    -0.9719 H       
  54 H54           11.0150     5.8041    -2.6744 H       
  55 H55            3.7764    -1.3055    -2.2173 H       
  56 H56            4.6458     0.1622    -1.7093 H       
  57 H57            5.2950    -1.4436    -1.2991 H       
  58 H58            4.2024    -0.3969     0.6654 H       
  59 H59            3.3329    -1.8647     0.1575 H       
  60 H60           -2.0985    -1.1157    -3.2026 H       
  61 H61           -1.2108     0.4270    -3.2154 H       
  62 H62           -0.3199    -1.1129    -3.2703 H       
  63 H63           -1.1228    -1.6589    -0.9887 H       
  64 H64           -2.0137    -0.1189    -0.9338 H       
@<TRIPOS>BOND
   1    1    2 ar
   2    1    6 ar
   3    2    3 ar
   4    2   33 1
   5    3    4 ar
   6    4    5 ar
   7    4   31 1
   8    5    6 ar
   9    5    7 1
  10    6   19 1
  11    7    8 1
  12    7   34 1
  13    7   35 1
  14    8    9 1
  15    9   10 ar
  16    9   14 ar
  17   10   11 ar
  18   10   36 1
  19   11   12 ar
  20   11   15 1
  21   12   13 ar
  22   12   17 1
  23   13   14 ar
  24   13   27 1
  25   14   37 1
  26   15   16 1
  27   15   38 1
  28   15   39 1
  29   16   17 am
  30   16   29 1
  31   17   18 2
  32   19   20 1
  33   20   21 ar
  34   20   25 ar
  35   21   22 ar
  36   21   40 1
  37   22   23 ar
  38   22   41 1
  39   23   24 ar
  40   23   42 1
  41   24   25 ar
  42   24   43 1
  43   25   44 1
  44   26   27 1
  45   26   45 1
  46   26   46 1
  47   26   47 1
  48   27   48 1
  49   27   49 1
  50   28   29 1
  51   28   50 1
  52   28   51 1
  53   28   52 1
  54   29   53 1
  55   29   54 1
  56   30   31 1
  57   30   55 1
  58   30   56 1
  59   30   57 1
  60   31   58 1
  61   31   59 1
  62   32   33 1
  63   32   60 1
  64   32   61 1
  65   32   62 1
  66   33   63 1
  67   33   64 1

#	End of record

