#	Name: ASD05213040
#	Creating user name:	WinNT
#	Creation time:	15. 06. 2019 20:57

#	Modifying user name:	WinNT
#	Modification time:	15. 06. 2019 20:57

#	Program:	/corina/corina34_cracker 3.40 0067  02.08.2006

@<TRIPOS>MOLECULE
ASD05213040
  45   49    0    0    0
SMALL
NO_CHARGES


@<TRIPOS>ATOM
   1 S1             0.0277     1.7393    -0.5220 S.3     
   2 C2             0.0562    -0.0220    -0.4811 C.2     
   3 N3            -0.9723    -0.7792    -0.6571 N.2     
   4 C4            -0.7905    -2.1133    -0.5968 C.ar    
   5 C5             0.5371    -2.4702    -0.3432 C.ar    
   6 S6             1.4926    -0.9965    -0.2021 S.3     
   7 C7            -1.7438    -3.1420    -0.7538 C.ar    
   8 C8            -1.3685    -4.4581    -0.6584 C.ar    
   9 C9            -0.0468    -4.7993    -0.4062 C.ar    
  10 C10            0.9011    -3.8113    -0.2493 C.ar    
  11 C11            1.7286     2.0800    -0.2126 C.2     
  12 N12            2.3068     3.3179    -0.1301 N.pl3   
  13 C13            3.6405     3.0872     0.1230 C.2     
  14 N14            3.8017     1.7848     0.1796 N.2     
  15 N15            2.6770     1.1938    -0.0125 N.2     
  16 C16            4.6914     4.1108     0.2975 C.ar    
  17 Cl17           0.4118    -6.4695    -0.2878 Cl      
  18 C18            1.6740     4.5603    -0.2740 C.ar    
  19 C19            0.7426     4.9795     0.6663 C.ar    
  20 C20            0.1206     6.2043     0.5218 C.ar    
  21 C21            0.4244     7.0124    -0.5584 C.ar    
  22 C22            1.3516     6.5975    -1.4966 C.ar    
  23 C23            1.9814     5.3765    -1.3542 C.ar    
  24 C24            4.4715     5.2062     1.1332 C.ar    
  25 C25            5.4568     6.1590     1.2921 C.ar    
  26 C26            6.6630     6.0327     0.6257 C.ar    
  27 C27            6.8925     4.9516    -0.2050 C.ar    
  28 C28            5.9159     3.9837    -0.3706 C.ar    
  29 O29            6.1405     2.9210    -1.1862 O.3     
  30 C30            7.4081     2.8641    -1.8435 C.3     
  31 H31           -2.7758    -2.8915    -0.9501 H       
  32 H32           -2.1080    -5.2357    -0.7803 H       
  33 H33            1.9292    -4.0777    -0.0534 H       
  34 H34            0.5044     4.3485     1.5098 H       
  35 H35           -0.6040     6.5310     1.2530 H       
  36 H36           -0.0637     7.9693    -0.6697 H       
  37 H37            1.5866     7.2307    -2.3394 H       
  38 H38            2.7058     5.0532    -2.0871 H       
  39 H39            3.5313     5.3084     1.6546 H       
  40 H40            5.2858     7.0069     1.9388 H       
  41 H41            7.4292     6.7829     0.7550 H       
  42 H42            7.8361     4.8596    -0.7223 H       
  43 H43            8.2028     2.8344    -1.0981 H       
  44 H44            7.4566     1.9681    -2.4623 H       
  45 H45            7.5317     3.7465    -2.4714 H       
@<TRIPOS>BOND
   1    1    2 1
   2    1   11 1
   3    2    3 2
   4    2    6 1
   5    3    4 1
   6    4    5 ar
   7    4    7 ar
   8    5    6 1
   9    5   10 ar
  10    7    8 ar
  11    7   31 1
  12    8    9 ar
  13    8   32 1
  14    9   10 ar
  15    9   17 1
  16   10   33 1
  17   11   12 1
  18   11   15 2
  19   12   13 1
  20   12   18 1
  21   13   14 2
  22   13   16 1
  23   14   15 1
  24   16   24 ar
  25   16   28 ar
  26   18   19 ar
  27   18   23 ar
  28   19   20 ar
  29   19   34 1
  30   20   21 ar
  31   20   35 1
  32   21   22 ar
  33   21   36 1
  34   22   23 ar
  35   22   37 1
  36   23   38 1
  37   24   25 ar
  38   24   39 1
  39   25   26 ar
  40   25   40 1
  41   26   27 ar
  42   26   41 1
  43   27   28 ar
  44   27   42 1
  45   28   29 1
  46   29   30 1
  47   30   43 1
  48   30   44 1
  49   30   45 1

#	End of record

