#	Name: ASD06020005
#	Creating user name:	WinNT
#	Creation time:	15. 06. 2019 21:04

#	Modifying user name:	WinNT
#	Modification time:	15. 06. 2019 21:04

#	Program:	/corina/corina34_cracker 3.40 0067  02.08.2006

@<TRIPOS>MOLECULE
ASD06020005
  36   39    0    0    0
SMALL
NO_CHARGES


@<TRIPOS>ATOM
   1 C1             0.0070    -0.0032     0.0570 C.1     
   2 C2            -0.0132     1.4287     0.0547 C.ar    
   3 C3             1.1868     2.1441     0.0334 C.ar    
   4 C4             1.1678     3.5218     0.0312 C.ar    
   5 C5            -0.0523     4.2037     0.0498 C.ar    
   6 C6            -1.2526     3.4878     0.0707 C.ar    
   7 C7            -1.2330     2.1101     0.0680 C.ar    
   8 N8             0.0229    -1.1391     0.0588 N.1     
   9 Cl9           -2.7680     4.3343     0.0939 Cl      
  10 Cl10           2.6588     4.4106     0.0058 Cl      
  11 C11           -0.8916     9.4870     0.0536 C.ar    
  12 C12           -0.5508     8.1300     0.0514 C.ar    
  13 C13            0.7984     7.7571     0.0300 C.ar    
  14 C14            1.7563     8.8031     0.0120 C.ar    
  15 C15            1.3373    10.0959     0.0162 C.ar    
  16 N16            0.0519    10.4123     0.0362 N.ar    
  17 S17           -1.5295     6.6673     0.0700 S.3     
  18 C18           -0.0730     5.6812     0.0480 C.2     
  19 N19            0.9772     6.4361     0.0294 N.2     
  20 N20           -2.2313     9.8644     0.0690 N.pl3   
  21 C21           -1.9499    13.4012     0.4935 C.ar    
  22 N22           -1.6340    12.1268     0.3843 N.ar    
  23 C23           -2.5734    11.2046     0.1833 C.ar    
  24 C24           -3.9029    11.6042     0.0890 C.ar    
  25 C25           -4.1938    12.9597     0.2098 C.ar    
  26 N26           -3.1964    13.8194     0.4099 N.ar    
  27 N27           -5.5024    13.4087     0.1227 N.pl3   
  28 H28            2.1294     1.6171     0.0189 H       
  29 H29           -2.1604     1.5569     0.0804 H       
  30 H30            2.8115     8.5737    -0.0045 H       
  31 H31            2.0728    10.8866     0.0028 H       
  32 H32           -2.9258     9.1908    -0.0001 H       
  33 H33           -1.1647    14.1236     0.6607 H       
  34 H34           -4.6886    10.8814    -0.0741 H       
  35 H35           -6.2234    12.7764    -0.0234 H       
  36 H36           -5.6972    14.3551     0.2080 H       
@<TRIPOS>BOND
   1    1    2 1
   2    1    8 3
   3    2    3 ar
   4    2    7 ar
   5    3    4 ar
   6    3   28 1
   7    4    5 ar
   8    4   10 1
   9    5    6 ar
  10    5   18 1
  11    6    7 ar
  12    6    9 1
  13    7   29 1
  14   11   12 ar
  15   11   16 ar
  16   11   20 1
  17   12   13 ar
  18   12   17 1
  19   13   14 ar
  20   13   19 1
  21   14   15 ar
  22   14   30 1
  23   15   16 ar
  24   15   31 1
  25   17   18 1
  26   18   19 2
  27   20   23 1
  28   20   32 1
  29   21   22 ar
  30   21   26 ar
  31   21   33 1
  32   22   23 ar
  33   23   24 ar
  34   24   25 ar
  35   24   34 1
  36   25   26 ar
  37   25   27 1
  38   27   35 1
  39   27   36 1

#	End of record

