#	Name: ASD01200074
#	Creating user name:	WinNT
#	Creation time:	15. 06. 2019 19:08

#	Modifying user name:	WinNT
#	Modification time:	15. 06. 2019 19:08

#	Program:	/corina/corina34_cracker 3.40 0067  02.08.2006

@<TRIPOS>MOLECULE
ASD01200074
  36   38    0    0    0
SMALL
NO_CHARGES


@<TRIPOS>ATOM
   1 C1             0.4754     1.4876    -1.4638 C.2     
   2 C2             0.3521     0.1661    -0.8134 C.ar    
   3 C3             1.4592    -0.6793    -0.7300 C.ar    
   4 C4             1.3361    -1.9157    -0.1187 C.ar    
   5 C5             0.1140    -2.3114     0.4092 C.ar    
   6 C6            -0.9835    -1.4749     0.3273 C.ar    
   7 C7            -0.8707    -0.2383    -0.2751 C.ar    
   8 O8             1.5426     1.8397    -1.9274 O.2     
   9 N9            -0.5967     2.3000    -1.5480 N.am    
  10 O10            2.4115    -2.7423    -0.0357 O.3     
  11 C11            3.2275    -2.6211     1.0441 C.ar    
  12 C12            2.8943    -1.7516     2.0729 C.ar    
  13 C13            3.7253    -1.6306     3.1697 C.ar    
  14 C14            4.8885    -2.3747     3.2427 C.ar    
  15 C15            5.2228    -3.2418     2.2189 C.ar    
  16 C16            4.3924    -3.3708     1.1226 C.ar    
  17 S17            0.9554     4.1652    -2.8458 S.3     
  18 C18           -0.4809     3.5418    -2.1592 C.2     
  19 N19           -1.4463     4.3968    -2.2926 N.2     
  20 C20           -1.1591     5.5319    -2.9017 C.2     
  21 C21            0.1092     5.6414    -3.3021 C.2     
  22 C22           -2.1807     6.6168    -3.1265 C.3     
  23 H23            2.4088    -0.3704    -1.1412 H       
  24 H24            0.0206    -3.2764     0.8851 H       
  25 H25           -1.9312    -1.7883     0.7396 H       
  26 H26           -1.7290     0.4146    -0.3334 H       
  27 H27           -1.4493     2.0173    -1.1817 H       
  28 H28            1.9862    -1.1697     2.0160 H       
  29 H29            3.4664    -0.9540     3.9707 H       
  30 H30            5.5372    -2.2781     4.1008 H       
  31 H31            6.1319    -3.8218     2.2784 H       
  32 H32            4.6518    -4.0515     0.3252 H       
  33 H33            0.5413     6.4873    -3.8160 H       
  34 H34           -2.1776     7.3003    -2.2774 H       
  35 H35           -1.9341     7.1654    -4.0355 H       
  36 H36           -3.1693     6.1693    -3.2290 H       
@<TRIPOS>BOND
   1    1    2 1
   2    1    8 2
   3    1    9 am
   4    2    3 ar
   5    2    7 ar
   6    3    4 ar
   7    3   23 1
   8    4    5 ar
   9    4   10 1
  10    5    6 ar
  11    5   24 1
  12    6    7 ar
  13    6   25 1
  14    7   26 1
  15    9   18 1
  16    9   27 1
  17   10   11 1
  18   11   12 ar
  19   11   16 ar
  20   12   13 ar
  21   12   28 1
  22   13   14 ar
  23   13   29 1
  24   14   15 ar
  25   14   30 1
  26   15   16 ar
  27   15   31 1
  28   16   32 1
  29   17   18 1
  30   17   21 1
  31   18   19 2
  32   19   20 1
  33   20   21 2
  34   20   22 1
  35   21   33 1
  36   22   34 1
  37   22   35 1
  38   22   36 1

#	End of record

