#	Name: ASD03900047
#	Creating user name:	WinNT
#	Creation time:	15. 06. 2019 20:47

#	Modifying user name:	WinNT
#	Modification time:	15. 06. 2019 20:47

#	Program:	/corina/corina34_cracker 3.40 0067  02.08.2006

@<TRIPOS>MOLECULE
ASD03900047
  41   43    0    0    0
SMALL
NO_CHARGES


@<TRIPOS>ATOM
   1 C1             0.1038     1.0815     0.7220 C.ar    
   2 C2            -0.0740    -0.0339    -0.1000 C.ar    
   3 C3             0.9448    -0.4425    -0.9639 C.ar    
   4 C4             2.1195     0.2453    -1.0102 C.ar    
   5 C5             2.3057     1.3721    -0.1839 C.ar    
   6 C6             1.2733     1.7788     0.6856 C.ar    
   7 C7             3.5263     2.0928    -0.2264 C.2     
   8 N8             4.7122     1.4241    -0.2184 N.2     
   9 C9             3.5117     3.5099    -0.2774 C.ar    
  10 C10            4.6639     4.2429     0.0725 C.ar    
  11 C11            4.6430     5.6038     0.0208 C.ar    
  12 C12            3.4833     6.2732    -0.3772 C.ar    
  13 C13            2.3380     5.5532    -0.7252 C.ar    
  14 C14            2.3467     4.1918    -0.6837 C.ar    
  15 O15            3.4692     7.6261    -0.4254 O.3     
  16 O16           -1.2390    -0.7224    -0.0587 O.3     
  17 N17            4.7311     0.1465    -0.0411 N.pl3   
  18 C18            5.9169    -0.5438    -0.1379 C.ar    
  19 C19            5.9411    -1.9289     0.0537 C.ar    
  20 C20            7.1326    -2.6142    -0.0453 C.ar    
  21 C21            8.3048    -1.9341    -0.3335 C.ar    
  22 C22            8.2882    -0.5615    -0.5246 C.ar    
  23 C23            7.1033     0.1355    -0.4343 C.ar    
  24 N24            7.1602    -4.0802     0.1571 N.pl3   
  25 O25            6.0469    -4.7281     0.4315 O.2     
  26 O26            8.2980    -4.7367     0.0629 O.2     
  27 H27           -0.6895     1.3944     1.3846 H       
  28 H28            0.8008    -1.3060    -1.5964 H       
  29 H29            2.9066    -0.0721    -1.6781 H       
  30 H30            1.4092     2.6414     1.3211 H       
  31 H31            5.5609     3.7267     0.3811 H       
  32 H32            5.5249     6.1667     0.2886 H       
  33 H33            1.4447     6.0771    -1.0317 H       
  34 H34            1.4607     3.6363    -0.9534 H       
  35 H35            3.7377     7.9921    -1.2792 H       
  36 H36           -1.9069    -0.4028    -0.6806 H       
  37 H37            3.9091    -0.3273     0.1605 H       
  38 H38            5.0282    -2.4601     0.2790 H       
  39 H39            9.2359    -2.4761    -0.4092 H       
  40 H40            9.2056    -0.0376    -0.7489 H       
  41 H41            7.0917     1.2051    -0.5834 H       
@<TRIPOS>BOND
   1    1    2 ar
   2    1    6 ar
   3    1   27 1
   4    2    3 ar
   5    2   16 1
   6    3    4 ar
   7    3   28 1
   8    4    5 ar
   9    4   29 1
  10    5    6 ar
  11    5    7 1
  12    6   30 1
  13    7    8 2
  14    7    9 1
  15    8   17 1
  16    9   10 ar
  17    9   14 ar
  18   10   11 ar
  19   10   31 1
  20   11   12 ar
  21   11   32 1
  22   12   13 ar
  23   12   15 1
  24   13   14 ar
  25   13   33 1
  26   14   34 1
  27   15   35 1
  28   16   36 1
  29   17   18 1
  30   17   37 1
  31   18   19 ar
  32   18   23 ar
  33   19   20 ar
  34   19   38 1
  35   20   24 1
  36   20   21 ar
  37   21   22 ar
  38   21   39 1
  39   22   23 ar
  40   22   40 1
  41   23   41 1
  42   24   25 2
  43   24   26 2

#	End of record

