#	Name: ASD01916681
#	Creating user name:	WinNT
#	Creation time:	15. 06. 2019 20:07

#	Modifying user name:	WinNT
#	Modification time:	15. 06. 2019 20:07

#	Program:	/corina/corina34_cracker 3.40 0067  02.08.2006

@<TRIPOS>MOLECULE
ASD01916681
  18   18    0    0    0
SMALL
NO_CHARGES


@<TRIPOS>ATOM
   1 C1            -0.0180     1.4760     0.0102 C.2     
   2 C2             0.0021    -0.0041     0.0020 C.ar    
   3 C3             1.2180    -0.6876    -0.0133 C.ar    
   4 C4             1.2308    -2.0670    -0.0208 C.ar    
   5 C5             0.0396    -2.7730    -0.0138 C.ar    
   6 C6            -1.1702    -2.0996     0.0014 C.ar    
   7 C7            -1.1948    -0.7204     0.0154 C.ar    
   8 N8             1.0995     2.1417     0.0031 N.2     
   9 N9            -1.2264     2.1520     0.0196 N.pl3   
  10 O10            1.0803     3.5575     0.0108 O.3     
  11 Cl11           0.0632    -4.5088    -0.0245 Cl      
  12 H12            2.1476    -0.1379    -0.0195 H       
  13 H13            2.1716    -2.5972    -0.0327 H       
  14 H14           -2.0963    -2.6553     0.0065 H       
  15 H15           -2.1389    -0.1963     0.0321 H       
  16 H16           -2.0598     1.6556     0.0208 H       
  17 H17           -1.2396     3.1219     0.0249 H       
  18 H18            1.9583     3.9628     0.0046 H       
@<TRIPOS>BOND
   1    1    2 1
   2    1    8 2
   3    1    9 1
   4    2    3 ar
   5    2    7 ar
   6    3    4 ar
   7    3   12 1
   8    4    5 ar
   9    4   13 1
  10    5    6 ar
  11    5   11 1
  12    6    7 ar
  13    6   14 1
  14    7   15 1
  15    8   10 1
  16    9   16 1
  17    9   17 1
  18   10   18 1

#	End of record

