#	Name: ASD07930518
#	Creating user name:	WinNT
#	Creation time:	15. 06. 2019 21:12

#	Modifying user name:	WinNT
#	Modification time:	15. 06. 2019 21:12

#	Program:	/corina/corina34_cracker 3.40 0067  02.08.2006

@<TRIPOS>MOLECULE
ASD07930518
  43   44    0    0    0
SMALL
NO_CHARGES


@<TRIPOS>ATOM
   1 C1            -0.0349     1.4583     0.0430 C.3     
   2 N2             0.7949    -0.4129    -2.1297 N.2     
   3 N3            -0.8907    -1.7833    -1.2682 N.pl3   
   4 C4            -0.9152    -2.8269    -0.2380 C.3     
   5 C5            -1.2304    -2.1884     1.1218 C.3     
   6 S6             0.0056    -0.8912     1.4438 S.o2    
   7 N7            -0.0146    -0.0065     0.0320 N.am    
   8 C8            -0.0117    -0.7257    -1.1547 C.2     
   9 C9             0.4498    -3.5151    -0.1752 C.3     
  10 C10           -1.9766    -3.8422    -0.5753 C.ar    
  11 C11           -2.8070    -3.6380    -1.6596 C.ar    
  12 C12           -3.7846    -4.5741    -1.9703 C.ar    
  13 C13           -3.9249    -5.7136    -1.1898 C.ar    
  14 C14           -3.0922    -5.9141    -0.1061 C.ar    
  15 C15           -2.1148    -4.9822     0.1989 C.ar    
  16 O16           -0.4583     0.0117     2.4382 O.2     
  17 O17            1.3136    -1.4438     1.5008 O.2     
  18 F18           -1.3014    -5.1801     1.2593 F       
  19 N19           -4.6279    -4.3687    -3.0692 N.am    
  20 C20           -5.0476    -5.4190    -3.8022 C.2     
  21 O21           -4.6189    -6.5298    -3.5711 O.2     
  22 C22           -6.0494    -5.2131    -4.9090 C.3     
  23 O23           -6.3333    -6.4666    -5.5337 O.3     
  24 C24           -7.2775    -6.3825    -6.6030 C.3     
  25 H25            0.9876     1.8359     0.0400 H       
  26 H26           -0.5588     1.8211    -0.8414 H       
  27 H27           -0.5487     1.8079     0.9385 H       
  28 H28            1.4066     0.3336    -2.0326 H       
  29 H29           -1.4886    -1.8385    -2.0300 H       
  30 H30           -2.2274    -1.7485     1.0989 H       
  31 H31           -1.1803    -2.9460     1.9039 H       
  32 H32            1.2163    -2.7801     0.0708 H       
  33 H33            0.4309    -4.2906     0.5905 H       
  34 H34            0.6748    -3.9648    -1.1423 H       
  35 H35           -2.6964    -2.7507    -2.2654 H       
  36 H36           -4.6848    -6.4426    -1.4296 H       
  37 H37           -3.2011    -6.8004     0.5014 H       
  38 H38           -4.9102    -3.4705    -3.3027 H       
  39 H39           -6.9679    -4.7972    -4.4950 H       
  40 H40           -5.6389    -4.5241    -5.6471 H       
  41 H41           -8.2215    -5.9908    -6.2241 H       
  42 H42           -6.8925    -5.7177    -7.3762 H       
  43 H43           -7.4388    -7.3748    -7.0242 H       
@<TRIPOS>BOND
   1    1    7 1
   2    1   25 1
   3    1   26 1
   4    1   27 1
   5    2    8 2
   6    2   28 1
   7    3    4 1
   8    3    8 1
   9    3   29 1
  10    4    5 1
  11    4    9 1
  12    4   10 1
  13    5    6 1
  14    5   30 1
  15    5   31 1
  16    6    7 am
  17    6   16 2
  18    6   17 2
  19    7    8 1
  20    9   32 1
  21    9   33 1
  22    9   34 1
  23   10   11 ar
  24   10   15 ar
  25   11   12 ar
  26   11   35 1
  27   12   13 ar
  28   12   19 1
  29   13   14 ar
  30   13   36 1
  31   14   15 ar
  32   14   37 1
  33   15   18 1
  34   19   20 am
  35   19   38 1
  36   20   21 2
  37   20   22 1
  38   22   23 1
  39   22   39 1
  40   22   40 1
  41   23   24 1
  42   24   41 1
  43   24   42 1
  44   24   43 1

#	End of record

