#	Name: ASD01918126
#	Creating user name:	WinNT
#	Creation time:	15. 06. 2019 20:10

#	Modifying user name:	WinNT
#	Modification time:	15. 06. 2019 20:10

#	Program:	/corina/corina34_cracker 3.40 0067  02.08.2006

@<TRIPOS>MOLECULE
ASD01918126
  38   41    0    0    0
SMALL
NO_CHARGES


@<TRIPOS>ATOM
   1 N1             4.8393    -0.3868    -2.1375 N.ar    
   2 C2             5.3030     0.3043    -3.1577 C.ar    
   3 C3             5.1810     1.6950    -3.1906 C.ar    
   4 C4             4.5568     2.3453    -2.1201 C.ar    
   5 C5             4.0841     1.5724    -1.0672 C.ar    
   6 C6             4.2459     0.1942    -1.1129 C.ar    
   7 O7             3.4712     2.1581    -0.0051 O.3     
   8 C8             3.4400     3.5170     0.0446 C.2     
   9 N9             2.1718     5.5187    -0.0208 N.pl3   
  10 C10            2.2515     4.1635    -0.0648 C.2     
  11 C11            4.6335     4.2290     0.2136 C.2     
  12 C12            4.5935     5.6180     0.2639 C.2     
  13 C13            3.2952     6.2796     0.1369 C.2     
  14 C14            5.8268     6.4029     0.4410 C.2     
  15 N15            5.7683     7.7486     0.4874 N.am    
  16 O16            6.8982     5.8368     0.5454 O.2     
  17 N17            1.1010     6.4205    -0.1069 N.2     
  18 C18            1.6050     7.6276    -0.0080 C.2     
  19 N19            2.9210     7.5493     0.1437 N.2     
  20 C20            5.6870     2.4437    -4.3015 C.1     
  21 C21            6.9187     8.4873     0.7604 C.ar    
  22 N22            8.0845     7.8695     0.8657 N.ar    
  23 C23            6.8308     9.8661     0.9137 C.ar    
  24 C24            7.9799    10.5884     1.1840 C.ar    
  25 C25            9.1837     9.9024     1.2922 C.ar    
  26 C26            9.1973     8.5297     1.1225 C.ar    
  27 N27            6.0883     3.0376    -5.1828 N.1     
  28 F28           10.3287    10.5696     1.5548 F       
  29 H29            5.7831    -0.2096    -3.9773 H       
  30 H30            4.4457     3.4195    -2.1127 H       
  31 H31            3.8799    -0.4115    -0.2970 H       
  32 H32            1.3474     3.5863    -0.1903 H       
  33 H33            5.5739     3.7057     0.3042 H       
  34 H34            4.9258     8.2031     0.3308 H       
  35 H35            1.0353     8.5446    -0.0382 H       
  36 H36            5.8784    10.3670     0.8226 H       
  37 H37            7.9420    11.6606     1.3077 H       
  38 H38           10.1305     7.9918     1.2014 H       
@<TRIPOS>BOND
   1    1    2 ar
   2    1    6 ar
   3    2    3 ar
   4    2   29 1
   5    3    4 ar
   6    3   20 1
   7    4    5 ar
   8    4   30 1
   9    5    6 ar
  10    5    7 1
  11    6   31 1
  12    7    8 1
  13    8   11 1
  14    8   10 2
  15    9   10 1
  16    9   17 1
  17    9   13 1
  18   10   32 1
  19   11   12 2
  20   11   33 1
  21   12   13 1
  22   12   14 1
  23   13   19 2
  24   14   15 am
  25   14   16 2
  26   15   21 1
  27   15   34 1
  28   17   18 2
  29   18   19 1
  30   18   35 1
  31   20   27 3
  32   21   23 ar
  33   21   22 ar
  34   22   26 ar
  35   23   24 ar
  36   23   36 1
  37   24   25 ar
  38   24   37 1
  39   25   26 ar
  40   25   28 1
  41   26   38 1

#	End of record

