#	Name: ASD01028225
#	Creating user name:	WinNT
#	Creation time:	15. 06. 2019 18:56

#	Modifying user name:	WinNT
#	Modification time:	15. 06. 2019 18:56

#	Program:	/corina/corina34_cracker 3.40 0067  02.08.2006

@<TRIPOS>MOLECULE
ASD01028225
  61   66    0    0    0
SMALL
NO_CHARGES


@<TRIPOS>ATOM
   1 C1             4.7697    -6.7227     0.1166 C.ar    
   2 C2             6.0885    -6.9416    -0.2099 C.ar    
   3 C3             4.2858    -5.4247     0.3068 C.ar    
   4 C4             5.1078    -4.3489     0.1734 C.ar    
   5 C5             6.4577    -4.5386    -0.1589 C.ar    
   6 C6             6.9585    -5.8486    -0.3538 C.ar    
   7 C7             7.3372    -3.4423    -0.3053 C.ar    
   8 C8             8.6547    -3.7068    -0.6347 C.ar    
   9 C9             9.0707    -5.0204    -0.8097 C.ar    
  10 N10            8.2457    -6.0317    -0.6709 N.ar    
  11 O11            6.9031    -2.1700    -0.1288 O.3     
  12 C12            7.8651    -1.1269    -0.2979 C.3     
  13 C13            7.2054     0.2077    -0.0641 C.2     
  14 N14            7.1075     0.8565     1.1230 N.pl3   
  15 C15            6.4326     2.0253     0.8601 C.2     
  16 N16            6.1622     2.0284    -0.4347 N.2     
  17 N17            6.6271     0.9548    -0.9714 N.2     
  18 N18            7.5301     0.5682     2.4221 N.2     
  19 C19            7.2873     1.4103     3.4048 C.2     
  20 C20            6.5961     2.6192     3.1656 C.2     
  21 C21            6.1732     2.9255     1.9115 C.2     
  22 C22            7.7423     1.0872     4.7732 C.2     
  23 O23            3.9269    -7.7796     0.2502 O.3     
  24 C24            2.5699    -7.4883     0.5904 C.3     
  25 C25            8.4162    -0.0441     5.1302 C.2     
  26 C26            8.7356    -0.1263     6.4583 C.2     
  27 C27            8.3275     0.9383     7.2111 C.2     
  28 S28            7.5037     2.1059     6.1863 S.3     
  29 C29            8.5480     1.0873     8.6530 C.2     
  30 O30            7.7650     0.5928     9.4426 O.2     
  31 N31            9.6178     1.7719     9.1039 N.am    
  32 C32            9.4786    -1.2991     7.0445 C.3     
  33 C33           10.6363     2.2844     8.1737 C.3     
  34 C34           10.8690     3.7681     8.4811 C.3     
  35 O35           11.1473     3.9219     9.8749 O.3     
  36 C36           10.0750     3.5254    10.7331 C.3     
  37 C37            9.7987     2.0342    10.5405 C.3     
  38 H38            6.4524    -7.9481    -0.3544 H       
  39 H39            3.2472    -5.2743     0.5624 H       
  40 H40            4.7221    -3.3512     0.3224 H       
  41 H41            9.3568    -2.8951    -0.7555 H       
  42 H42           10.1015    -5.2151    -1.0667 H       
  43 H43            8.6764    -1.2615     0.4175 H       
  44 H44            8.2648    -1.1621    -1.3114 H       
  45 H45            6.4037     3.3008     3.9810 H       
  46 H46            5.6444     3.8482     1.7232 H       
  47 H47            2.5391    -6.9664     1.5468 H       
  48 H48            2.1290    -6.8580    -0.1819 H       
  49 H49            2.0066    -8.4184     0.6657 H       
  50 H50            8.6769    -0.8149     4.4201 H       
  51 H51           10.5509    -1.1086     7.0007 H       
  52 H52            9.1765    -1.4386     8.0824 H       
  53 H53            9.2458    -2.1985     6.4743 H       
  54 H54           11.5663     1.7317     8.3066 H       
  55 H55           10.2857     2.1727     7.1476 H       
  56 H56           11.7152     4.1322     7.8984 H       
  57 H57            9.9763     4.3377     8.2230 H       
  58 H58           10.3499     3.7150    11.7707 H       
  59 H59            9.1793     4.0942    10.4833 H       
  60 H60            8.8952     1.7552    11.0828 H       
  61 H61           10.6436     1.4535    10.9106 H       
@<TRIPOS>BOND
   1    1    2 ar
   2    1    3 ar
   3    1   23 1
   4    2    6 ar
   5    2   38 1
   6    3    4 ar
   7    3   39 1
   8    4    5 ar
   9    4   40 1
  10    5    6 ar
  11    5    7 ar
  12    6   10 ar
  13    7    8 ar
  14    7   11 1
  15    8    9 ar
  16    8   41 1
  17    9   10 ar
  18    9   42 1
  19   11   12 1
  20   12   13 1
  21   12   43 1
  22   12   44 1
  23   13   14 1
  24   13   17 2
  25   14   15 1
  26   14   18 1
  27   15   16 2
  28   15   21 1
  29   16   17 1
  30   18   19 2
  31   19   20 1
  32   19   22 1
  33   20   21 2
  34   20   45 1
  35   21   46 1
  36   22   25 2
  37   22   28 1
  38   23   24 1
  39   24   47 1
  40   24   48 1
  41   24   49 1
  42   25   26 1
  43   25   50 1
  44   26   27 2
  45   26   32 1
  46   27   28 1
  47   27   29 1
  48   29   30 2
  49   29   31 am
  50   31   33 1
  51   31   37 1
  52   32   51 1
  53   32   52 1
  54   32   53 1
  55   33   34 1
  56   33   54 1
  57   33   55 1
  58   34   35 1
  59   34   56 1
  60   34   57 1
  61   35   36 1
  62   36   37 1
  63   36   58 1
  64   36   59 1
  65   37   60 1
  66   37   61 1

#	End of record

