#	Name: ASD03720006
#	Creating user name:	WinNT
#	Creation time:	15. 06. 2019 20:43

#	Modifying user name:	WinNT
#	Modification time:	15. 06. 2019 20:43

#	Program:	/corina/corina34_cracker 3.40 0067  02.08.2006

@<TRIPOS>MOLECULE
ASD03720006
  58   60    0    0    0
SMALL
NO_CHARGES


@<TRIPOS>ATOM
   1 C1            -0.1654     1.8920     0.0373 C.3     
   2 C2            -0.0505     0.3795     0.3795 C.3     
   3 C3             1.2426     2.3645    -0.1717 C.2     
   4 C4            -0.8922     2.4238     1.2746 C.3     
   5 C5            -1.4416     0.0310     0.8857 C.3     
   6 C6             0.4635    -0.3298    -0.8514 C.3     
   7 C7             1.7763     3.3495     0.5427 C.2     
   8 C8             2.0165     1.6354    -1.2609 C.3     
   9 C9            -1.9745     1.3371     1.5306 C.3     
  10 C10           -2.3402    -0.3920    -0.2782 C.3     
  11 C11            1.9164     0.1227    -1.0747 C.3     
  12 C12            3.1636     3.7709     0.2934 C.2     
  13 C13           -3.6980    -0.8431     0.2636 C.3     
  14 C14            3.6972     4.7560     1.0077 C.2     
  15 C15            5.1615     5.1037     0.8652 C.3     
  16 C16            2.8494     5.5529     1.9728 C.3     
  17 C17            5.2791     6.5922     0.5137 C.3     
  18 C18            2.9722     7.0405     1.6189 C.3     
  19 C19            4.4327     7.3851     1.4834 C.2     
  20 O20            4.8117     6.8088    -0.8192 O.3     
  21 O21            2.3900     7.8304     2.6577 O.3     
  22 C22            0.9602     0.1959     1.5134 C.3     
  23 C23           -2.5374     0.7922    -1.2268 C.3     
  24 C24            4.9589     8.3563     2.1878 C.2     
  25 H25           -0.7601     2.0431    -0.8637 H       
  26 H26           -0.2101     2.4967     2.1217 H       
  27 H27           -1.3551     3.3883     1.0659 H       
  28 H28           -1.3859    -0.7646     1.6286 H       
  29 H29            0.4314    -1.4084    -0.6974 H       
  30 H30           -0.1447    -0.0603    -1.7149 H       
  31 H31            1.1916     3.8408     1.3063 H       
  32 H32            1.6067     1.9051    -2.2342 H       
  33 H33            3.0639     1.9338    -1.2180 H       
  34 H34           -2.1161     1.1949     2.6019 H       
  35 H35           -2.9153     1.6285     1.0636 H       
  36 H36           -1.8724    -1.2156    -0.8177 H       
  37 H37            2.5159    -0.1696    -0.2125 H       
  38 H38            2.3098    -0.3714    -1.9631 H       
  39 H39            3.7483     3.2796    -0.4703 H       
  40 H40           -3.5505    -1.6254     1.0081 H       
  41 H41           -4.2057     0.0048     0.7233 H       
  42 H42           -4.3053    -1.2302    -0.5547 H       
  43 H43            5.6773     4.9078     1.8053 H       
  44 H44            5.6043     4.5038     0.0701 H       
  45 H45            1.8083     5.2415     1.8886 H       
  46 H46            3.2019     5.3888     2.9911 H       
  47 H47            6.3198     6.9062     0.5948 H       
  48 H48            2.4576     7.2365     0.6782 H       
  49 H49            4.8579     7.7307    -1.1073 H       
  50 H50            2.4331     8.7832     2.4983 H       
  51 H51            0.5956     0.6975     2.4098 H       
  52 H52            1.0873    -0.8672     1.7181 H       
  53 H53            1.9176     0.6264     1.2200 H       
  54 H54           -1.6168     0.9696    -1.7827 H       
  55 H55           -3.3454     0.5690    -1.9235 H       
  56 H56           -2.7906     1.6816    -0.6498 H       
  57 H57            6.0061     8.5966     2.0784 H       
  58 H58            4.3454     8.9166     2.8778 H       
@<TRIPOS>BOND
   1    1    2 1
   2    1    3 1
   3    1    4 1
   4    1   25 1
   5    2    5 1
   6    2    6 1
   7    2   22 1
   8    3    7 2
   9    3    8 1
  10    4    9 1
  11    4   26 1
  12    4   27 1
  13    5   10 1
  14    5    9 1
  15    5   28 1
  16    6   11 1
  17    6   29 1
  18    6   30 1
  19    7   12 1
  20    7   31 1
  21    8   11 1
  22    8   32 1
  23    8   33 1
  24    9   34 1
  25    9   35 1
  26   10   13 1
  27   10   23 1
  28   10   36 1
  29   11   37 1
  30   11   38 1
  31   12   14 2
  32   12   39 1
  33   13   40 1
  34   13   41 1
  35   13   42 1
  36   14   15 1
  37   14   16 1
  38   15   17 1
  39   15   43 1
  40   15   44 1
  41   16   18 1
  42   16   45 1
  43   16   46 1
  44   17   19 1
  45   17   20 1
  46   17   47 1
  47   18   21 1
  48   18   19 1
  49   18   48 1
  50   19   24 2
  51   20   49 1
  52   21   50 1
  53   22   51 1
  54   22   52 1
  55   22   53 1
  56   23   54 1
  57   23   55 1
  58   23   56 1
  59   24   57 1
  60   24   58 1

#	End of record

