#	Name: ASD03330189
#	Creating user name:	WinNT
#	Creation time:	15. 06. 2019 20:36

#	Modifying user name:	WinNT
#	Modification time:	15. 06. 2019 20:36

#	Program:	/corina/corina34_cracker 3.40 0067  02.08.2006

@<TRIPOS>MOLECULE
ASD03330189
  55   58    0    0    0
SMALL
NO_CHARGES


@<TRIPOS>ATOM
   1 C1             0.9328     0.7702     2.8499 C.ar    
   2 C2             0.6477     0.0491     1.7049 C.ar    
   3 C3             1.6745    -0.4533     0.9299 C.ar    
   4 C4             2.9944    -0.2337     1.3014 C.ar    
   5 C5             3.2774     0.4908     2.4518 C.ar    
   6 C6             2.2461     0.9906     3.2226 C.ar    
   7 N7             4.0370    -0.7419     0.5186 N.am    
   8 C8             5.0571     0.0594     0.1525 C.2     
   9 N9             6.0920    -0.4448    -0.5484 N.am    
  10 O10            5.0437     1.2371     0.4546 O.2     
  11 C11            7.1967     0.3622    -0.8434 C.ar    
  12 C12            8.4702    -0.1854    -0.8622 C.ar    
  13 C13            9.5665     0.6217    -1.1563 C.ar    
  14 C14            9.3772     1.9752    -1.4300 C.ar    
  15 C15            8.1055     2.5128    -1.4093 C.ar    
  16 C16            7.0167     1.7115    -1.1232 C.ar    
  17 C17           10.9320     0.0425    -1.1777 C.ar    
  18 N18           11.1031    -1.2478    -0.9153 N.ar    
  19 C19           12.0206     0.8553    -1.4782 C.ar    
  20 C20           13.2927     0.3042    -1.4961 C.ar    
  21 C21           13.4351    -1.0431    -1.2126 C.ar    
  22 C22           12.3041    -1.8020    -0.9249 C.ar    
  23 N23           12.4389    -3.1554    -0.6387 N.3     
  24 C24           11.1274    -3.7706    -0.3639 C.3     
  25 C25           10.9545    -4.9406    -1.3551 C.3     
  26 C26           12.4148    -5.2789    -1.7547 C.3     
  27 C27           13.0694    -3.8750    -1.7659 C.3     
  28 C28            4.7083     0.7311     2.8590 C.3     
  29 C29            1.3629    -1.2395    -0.3175 C.3     
  30 H30            0.1282     1.1659     3.4518 H       
  31 H31           -0.3790    -0.1217     1.4167 H       
  32 H32            2.4655     1.5541     4.1174 H       
  33 H33            4.0256    -1.6707     0.2394 H       
  34 H34            6.0712    -1.3670    -0.8483 H       
  35 H35            8.6117    -1.2346    -0.6491 H       
  36 H36           10.2254     2.6036    -1.6581 H       
  37 H37            7.9610     3.5618    -1.6216 H       
  38 H38            6.0241     2.1368    -1.1085 H       
  39 H39           11.8762     1.9033    -1.6954 H       
  40 H40           14.1543     0.9132    -1.7266 H       
  41 H41           14.4129    -1.5017    -1.2189 H       
  42 H42           11.1005    -4.1447     0.6596 H       
  43 H43           10.3351    -3.0372    -0.5139 H       
  44 H44           10.4812    -5.7925    -0.8670 H       
  45 H45           10.3796    -4.6259    -2.2261 H       
  46 H46           12.8841    -5.9226    -1.0107 H       
  47 H47           12.4532    -5.7355    -2.7437 H       
  48 H48           12.8591    -3.3657    -2.7064 H       
  49 H49           14.1451    -3.9566    -1.6098 H       
  50 H50            5.1048     1.5834     2.3074 H       
  51 H51            4.7519     0.9382     3.9283 H       
  52 H52            5.3032    -0.1546     2.6360 H       
  53 H53            1.2976    -0.5608    -1.1679 H       
  54 H54            2.1535    -1.9687    -0.4944 H       
  55 H55            0.4121    -1.7576    -0.1924 H       
@<TRIPOS>BOND
   1    1    2 ar
   2    1    6 ar
   3    1   30 1
   4    2    3 ar
   5    2   31 1
   6    3    4 ar
   7    3   29 1
   8    4    5 ar
   9    4    7 1
  10    5    6 ar
  11    5   28 1
  12    6   32 1
  13    7    8 am
  14    7   33 1
  15    8    9 am
  16    8   10 2
  17    9   11 1
  18    9   34 1
  19   11   12 ar
  20   11   16 ar
  21   12   13 ar
  22   12   35 1
  23   13   14 ar
  24   13   17 1
  25   14   15 ar
  26   14   36 1
  27   15   16 ar
  28   15   37 1
  29   16   38 1
  30   17   18 ar
  31   17   19 ar
  32   18   22 ar
  33   19   20 ar
  34   19   39 1
  35   20   21 ar
  36   20   40 1
  37   21   22 ar
  38   21   41 1
  39   22   23 1
  40   23   24 1
  41   23   27 1
  42   24   25 1
  43   24   42 1
  44   24   43 1
  45   25   26 1
  46   25   44 1
  47   25   45 1
  48   26   27 1
  49   26   46 1
  50   26   47 1
  51   27   48 1
  52   27   49 1
  53   28   50 1
  54   28   51 1
  55   28   52 1
  56   29   53 1
  57   29   54 1
  58   29   55 1

#	End of record

