#	Name: ASD02408405
#	Creating user name:	WinNT
#	Creation time:	15. 06. 2019 20:21

#	Modifying user name:	WinNT
#	Modification time:	15. 06. 2019 20:21

#	Program:	/corina/corina34_cracker 3.40 0067  02.08.2006

@<TRIPOS>MOLECULE
ASD02408405
  27   28    0    0    0
SMALL
NO_CHARGES


@<TRIPOS>ATOM
   1 C1            -0.1100     0.8382     0.4075 C.2     
   2 C2             0.0886    -0.5552     0.5537 C.2     
   3 C3             1.1510     1.4303     0.4001 C.2     
   4 N4             2.0567     0.4366     0.5355 N.pl3   
   5 N5             1.3704    -0.7789     0.6281 N.2     
   6 C6             3.4485     0.5966     0.5764 C.ar    
   7 C7             4.0231     1.5578     1.3967 C.ar    
   8 N8             5.3317     1.7118     1.4376 N.ar    
   9 C9             6.1417     0.9680     0.7100 C.ar    
  10 C10            5.6444    -0.0101    -0.1313 C.ar    
  11 C11            4.2756    -0.2102    -0.2012 C.ar    
  12 N12            1.4237     2.7774     0.2777 N.pl3   
  13 C13           -1.3993     1.5279     0.2812 C.2     
  14 N14           -2.5465     0.8207     0.2993 N.am    
  15 O15           -1.4326     2.7383     0.1600 O.2     
  16 C16            3.6949    -1.2662    -1.1059 C.3     
  17 H17           -0.6882    -1.3043     0.5966 H       
  18 H18            3.3917     2.1861     2.0074 H       
  19 H19            7.2084     1.1253     0.7719 H       
  20 H20            6.3157    -0.6139    -0.7239 H       
  21 H21            0.6971     3.4199     0.2617 H       
  22 H22            2.3420     3.0820     0.2077 H       
  23 H23           -2.5200    -0.1441     0.3959 H       
  24 H24           -3.3986     1.2765     0.2159 H       
  25 H25            3.5137    -2.1757    -0.5332 H       
  26 H26            2.7550    -0.9080    -1.5259 H       
  27 H27            4.3959    -1.4787    -1.9131 H       
@<TRIPOS>BOND
   1    1    2 1
   2    1    3 2
   3    1   13 1
   4    2    5 2
   5    2   17 1
   6    3    4 1
   7    3   12 1
   8    4    5 1
   9    4    6 1
  10    6    7 ar
  11    6   11 ar
  12    7    8 ar
  13    7   18 1
  14    8    9 ar
  15    9   10 ar
  16    9   19 1
  17   10   11 ar
  18   10   20 1
  19   11   16 1
  20   12   21 1
  21   12   22 1
  22   13   14 am
  23   13   15 2
  24   14   23 1
  25   14   24 1
  26   16   25 1
  27   16   26 1
  28   16   27 1

#	End of record

