#	Name: ASD04590580
#	Creating user name:	WinNT
#	Creation time:	15. 06. 2019 20:51

#	Modifying user name:	WinNT
#	Modification time:	15. 06. 2019 20:51

#	Program:	/corina/corina34_cracker 3.40 0067  02.08.2006

@<TRIPOS>MOLECULE
ASD04590580
  73   78    0    0    0
SMALL
NO_CHARGES


@<TRIPOS>ATOM
   1 C1             2.3943     1.3971    -0.0126 C.ar    
   2 C2             2.3908     0.0091    -0.0104 C.ar    
   3 C3             1.1747    -0.6448     0.0241 C.ar    
   4 C4             0.0068     0.0998     0.0396 C.ar    
   5 N5             0.0393     1.4172     0.0320 N.ar    
   6 C6             1.1848     2.0805     0.0095 C.ar    
   7 C7             3.7090    -0.7118    -0.0600 C.3     
   8 C8             3.5567    -2.1527     0.4272 C.3     
   9 N9             2.3812    -2.7372    -0.2387 N.am    
  10 C10            1.0709    -2.1475     0.0594 C.3     
  11 N11            1.1774     3.4725     0.0085 N.pl3   
  12 C12           -0.0228     4.1589    -0.0814 C.ar    
  13 N13           -0.0137     5.4774     0.0274 N.ar    
  14 C14           -1.1452     6.1711    -0.0536 C.ar    
  15 C15           -2.3503     5.4692    -0.2575 C.ar    
  16 C16           -2.3099     4.0828    -0.3656 C.ar    
  17 N17           -1.1401     3.4712    -0.2790 N.ar    
  18 N18           -1.4313     7.5118     0.0205 N.pl3   
  19 C19           -2.7909     7.7251    -0.1280 C.ar    
  20 C20           -3.4163     6.4781    -0.3056 C.ar    
  21 C21           -3.5799     8.8681    -0.1321 C.ar    
  22 N22           -4.8840     8.7816    -0.2984 N.ar    
  23 C23           -5.5021     7.6261    -0.4677 C.ar    
  24 C24           -4.7995     6.4398    -0.4778 C.ar    
  25 C25           -0.4376     8.5681     0.2279 C.3     
  26 C26            0.5819     8.5402    -0.9126 C.3     
  27 C27            1.6198     9.6433    -0.6959 C.3     
  28 C28            2.3377     9.4138     0.6356 C.3     
  29 C29            1.3182     9.4416     1.7761 C.3     
  30 C30            0.2803     8.3385     1.5594 C.3     
  31 C31            2.5037    -3.7750    -1.0898 C.2     
  32 O32            1.4114    -4.2900    -1.6851 O.3     
  33 O33            3.6000    -4.2459    -1.3199 O.2     
  34 C34            1.6183    -5.4067    -2.5897 C.3     
  35 C35            2.2575    -6.5690    -1.8272 C.3     
  36 C36            0.2728    -5.8529    -3.1653 C.3     
  37 C37            3.3755    10.5169     0.8522 C.3     
  38 C38            2.5428    -4.9750    -3.7298 C.3     
  39 H39            3.3277     1.9402    -0.0269 H       
  40 H40           -0.9464    -0.4078     0.0578 H       
  41 H41            4.0769    -0.7169    -1.0860 H       
  42 H42            4.4263    -0.1921     0.5752 H       
  43 H43            4.4482    -2.7247     0.1698 H       
  44 H44            3.4111    -2.1628     1.5074 H       
  45 H45            0.7464    -2.4659     1.0501 H       
  46 H46            0.3459    -2.4790    -0.6839 H       
  47 H47            2.0125     3.9620     0.0708 H       
  48 H48           -3.2163     3.5166    -0.5222 H       
  49 H49           -3.1205     9.8362     0.0025 H       
  50 H50           -6.5739     7.6106    -0.5995 H       
  51 H51           -5.3108     5.4987    -0.6166 H       
  52 H52           -0.9359     9.5373     0.2462 H       
  53 H53            1.0803     7.5710    -0.9309 H       
  54 H54            0.0705     8.7038    -1.8612 H       
  55 H55            2.3461     9.6235    -1.5084 H       
  56 H56            1.1214    10.6126    -0.6776 H       
  57 H57            2.8360     8.4446     0.6173 H       
  58 H58            1.8296     9.2781     2.7247 H       
  59 H59            0.8198    10.4108     1.7944 H       
  60 H60           -0.4460     8.3583     2.3719 H       
  61 H61            0.7787     7.3693     1.5411 H       
  62 H62            1.5989    -6.8766    -1.0149 H       
  63 H63            2.4128    -7.4074    -2.5062 H       
  64 H64            3.2161    -6.2512    -1.4171 H       
  65 H65           -0.1825    -5.0249    -3.7085 H       
  66 H66            0.4282    -6.6913    -3.8444 H       
  67 H67           -0.3858    -6.1605    -2.3531 H       
  68 H68            2.8771    11.4861     0.8705 H       
  69 H69            3.8869    10.3533     1.8008 H       
  70 H70            4.1018    10.4971     0.0397 H       
  71 H71            3.5014    -4.6571    -3.3197 H       
  72 H72            2.6982    -5.8134    -4.4089 H       
  73 H73            2.0875    -4.1470    -4.2730 H       
@<TRIPOS>BOND
   1    1    2 ar
   2    1    6 ar
   3    1   39 1
   4    2    3 ar
   5    2    7 1
   6    3    4 ar
   7    3   10 1
   8    4    5 ar
   9    4   40 1
  10    5    6 ar
  11    6   11 1
  12    7    8 1
  13    7   41 1
  14    7   42 1
  15    8    9 1
  16    8   43 1
  17    8   44 1
  18    9   10 1
  19    9   31 am
  20   10   45 1
  21   10   46 1
  22   11   12 1
  23   11   47 1
  24   12   13 ar
  25   12   17 ar
  26   13   14 ar
  27   14   15 ar
  28   14   18 1
  29   15   16 ar
  30   15   20 1
  31   16   17 ar
  32   16   48 1
  33   18   19 1
  34   18   25 1
  35   19   20 ar
  36   19   21 ar
  37   20   24 ar
  38   21   22 ar
  39   21   49 1
  40   22   23 ar
  41   23   24 ar
  42   23   50 1
  43   24   51 1
  44   25   26 1
  45   25   30 1
  46   25   52 1
  47   26   27 1
  48   26   53 1
  49   26   54 1
  50   27   28 1
  51   27   55 1
  52   27   56 1
  53   28   29 1
  54   28   37 1
  55   28   57 1
  56   29   30 1
  57   29   58 1
  58   29   59 1
  59   30   60 1
  60   30   61 1
  61   31   32 1
  62   31   33 2
  63   32   34 1
  64   34   35 1
  65   34   36 1
  66   34   38 1
  67   35   62 1
  68   35   63 1
  69   35   64 1
  70   36   65 1
  71   36   66 1
  72   36   67 1
  73   37   68 1
  74   37   69 1
  75   37   70 1
  76   38   71 1
  77   38   72 1
  78   38   73 1

#	End of record

