#	Name: ASD03090261
#	Creating user name:	WinNT
#	Creation time:	15. 06. 2019 20:28

#	Modifying user name:	WinNT
#	Modification time:	15. 06. 2019 20:28

#	Program:	/corina/corina34_cracker 3.40 0067  02.08.2006

@<TRIPOS>MOLECULE
ASD03090261
  42   44    0    0    0
SMALL
NO_CHARGES


@<TRIPOS>ATOM
   1 N1             0.1201     1.4299     0.7026 N.ar    
   2 C2             0.2339     0.5006    -0.2264 C.ar    
   3 C3             1.4152    -0.1993    -0.3882 C.ar    
   4 C4             2.4973     0.0932     0.4524 C.ar    
   5 C5             2.3293     1.0869     1.4224 C.ar    
   6 C6             1.1145     1.7350     1.5136 C.ar    
   7 C7             3.7816    -0.6291     0.3181 C.2     
   8 N8             5.7577    -3.5238     0.0516 N.pl3   
   9 C9             4.9026    -4.6278    -0.0287 C.ar    
  10 C10            3.6733    -4.5104    -0.6638 C.ar    
  11 C11            2.8306    -5.6021    -0.7423 C.ar    
  12 C12            3.2109    -6.8127    -0.1885 C.ar    
  13 C13            4.4363    -6.9320     0.4457 C.ar    
  14 C14            5.2843    -5.8448     0.5216 C.ar    
  15 N15            3.9332    -1.9371     0.2609 N.2     
  16 C16            5.2276    -2.2352     0.1401 C.2     
  17 N17            5.9234    -1.1214     0.1183 N.2     
  18 N18            5.0061    -0.0637     0.2266 N.pl3   
  19 C19            5.3156     1.3681     0.2463 C.3     
  20 F20            2.3852    -7.8791    -0.2665 F       
  21 C21            5.2018     1.9259    -1.1490 C.2     
  22 N22            5.4435     3.2326    -1.3742 N.am    
  23 O23            4.8926     1.1991    -2.0693 O.2     
  24 C24            5.3329     3.7749    -2.7306 C.3     
  25 F25            1.5242    -1.1504    -1.3415 F       
  26 C26            4.8472    -8.2508     1.0480 C.3     
  27 F27            6.1142    -8.1243     1.6276 F       
  28 F28            3.9213    -8.6247     2.0279 F       
  29 F29            4.8875    -9.2280     0.0476 F       
  30 H30           -0.6066     0.2833    -0.8688 H       
  31 H31            3.1382     1.3426     2.0906 H       
  32 H32            0.9760     2.5035     2.2597 H       
  33 H33            6.7190    -3.6534     0.0458 H       
  34 H34            3.3760    -3.5662    -1.0956 H       
  35 H35            1.8743    -5.5112    -1.2358 H       
  36 H36            6.2399    -5.9382     1.0163 H       
  37 H37            4.6129     1.8827     0.9018 H       
  38 H38            6.3308     1.5154     0.6148 H       
  39 H39            5.6908     3.8139    -0.6381 H       
  40 H40            5.5632     4.8402    -2.7159 H       
  41 H41            6.0356     3.2603    -3.3861 H       
  42 H42            4.3177     3.6276    -3.0991 H       
@<TRIPOS>BOND
   1    1    2 ar
   2    1    6 ar
   3    2    3 ar
   4    2   30 1
   5    3    4 ar
   6    3   25 1
   7    4    5 ar
   8    4    7 1
   9    5    6 ar
  10    5   31 1
  11    6   32 1
  12    7   15 2
  13    7   18 1
  14    8    9 1
  15    8   16 1
  16    8   33 1
  17    9   10 ar
  18    9   14 ar
  19   10   11 ar
  20   10   34 1
  21   11   12 ar
  22   11   35 1
  23   12   13 ar
  24   12   20 1
  25   13   14 ar
  26   13   26 1
  27   14   36 1
  28   15   16 1
  29   16   17 2
  30   17   18 1
  31   18   19 1
  32   19   21 1
  33   19   37 1
  34   19   38 1
  35   21   22 am
  36   21   23 2
  37   22   24 1
  38   22   39 1
  39   24   40 1
  40   24   41 1
  41   24   42 1
  42   26   27 1
  43   26   28 1
  44   26   29 1

#	End of record

