#	Name: ASD01881280
#	Creating user name:	WinNT
#	Creation time:	15. 06. 2019 19:42

#	Modifying user name:	WinNT
#	Modification time:	15. 06. 2019 19:42

#	Program:	/corina/corina34_cracker 3.40 0067  02.08.2006

@<TRIPOS>MOLECULE
ASD01881280
  53   56    0    0    0
SMALL
NO_CHARGES


@<TRIPOS>ATOM
   1 C1            -0.0049     1.2881    -0.0308 C.2     
   2 N2             0.0256    -0.0536    -0.1034 N.am    
   3 C3             1.4250    -0.4927    -0.1455 C.3     
   4 C4             2.2615     0.7614    -0.0891 C.ar    
   5 C5             3.6147     0.9889    -0.0944 C.ar    
   6 C6             4.0998     2.2935    -0.0302 C.ar    
   7 C7             3.2122     3.3642     0.0396 C.ar    
   8 C8             1.8548     3.1399     0.0451 C.ar    
   9 C9             1.3633     1.8320    -0.0196 C.ar    
  10 O10           -1.0187     1.9580     0.0140 O.2     
  11 N11            5.4711     2.5264    -0.0354 N.pl3   
  12 C12            6.0967     3.1918    -1.1809 C.3     
  13 C13            5.6550     1.6014     2.1928 C.ar    
  14 C14            6.2522     2.1256     1.0522 C.ar    
  15 C15            7.6371     2.2457     1.0073 C.ar    
  16 C16            8.3728     1.8309     2.1192 C.ar    
  17 C17            7.6963     1.3162     3.2233 C.ar    
  18 N18            6.3823     1.2204     3.2240 N.ar    
  19 C19            9.8531     1.9361     2.1248 C.ar    
  20 C20           10.5795     1.5198     3.2385 C.ar    
  21 C21           11.9560     1.6200     3.2384 C.ar    
  22 C22           12.6146     2.1325     2.1352 C.ar    
  23 C23           11.8984     2.5477     1.0271 C.ar    
  24 C24           10.5220     2.4463     1.0141 C.ar    
  25 C25           -1.1457    -0.9330    -0.1344 C.3     
  26 C26           -1.5730    -1.1622    -1.5856 C.3     
  27 C27           -2.7963    -2.0806    -1.6180 C.3     
  28 C28           -3.2236    -2.3098    -3.0691 C.3     
  29 H29            1.6443    -1.1283     0.7124 H       
  30 H30            1.6207    -1.0324    -1.0721 H       
  31 H31            4.3026     0.1580    -0.1478 H       
  32 H32            3.5907     4.3745     0.0899 H       
  33 H33            1.1695     3.9729     0.0993 H       
  34 H34            6.0986     4.2696    -1.0185 H       
  35 H35            7.1223     2.8391    -1.2903 H       
  36 H36            5.5349     2.9617    -2.0861 H       
  37 H37            4.5798     1.5093     2.2366 H       
  38 H38            8.1305     2.6489     0.1352 H       
  39 H39            8.2556     0.9924     4.0886 H       
  40 H40           10.0663     1.1198     4.1005 H       
  41 H41           12.5200     1.2979     4.1013 H       
  42 H42           13.6918     2.2091     2.1393 H       
  43 H43           12.4176     2.9474     0.1685 H       
  44 H44            9.9641     2.7659     0.1463 H       
  45 H45           -0.8948    -1.8887     0.3257 H       
  46 H46           -1.9637    -0.4683     0.4161 H       
  47 H47           -1.8240    -0.2065    -2.0457 H       
  48 H48           -0.7551    -1.6269    -2.1361 H       
  49 H49           -2.5454    -3.0364    -1.1579 H       
  50 H50           -3.6142    -1.6159    -1.0675 H       
  51 H51           -4.0951    -2.9641    -3.0922 H       
  52 H52           -3.4745    -1.3541    -3.5293 H       
  53 H53           -2.4057    -2.7745    -3.6197 H       
@<TRIPOS>BOND
   1    1    2 am
   2    1    9 1
   3    1   10 2
   4    2    3 1
   5    2   25 1
   6    3    4 1
   7    3   29 1
   8    3   30 1
   9    4    5 ar
  10    4    9 ar
  11    5    6 ar
  12    5   31 1
  13    6    7 ar
  14    6   11 1
  15    7    8 ar
  16    7   32 1
  17    8    9 ar
  18    8   33 1
  19   11   12 1
  20   11   14 1
  21   12   34 1
  22   12   35 1
  23   12   36 1
  24   13   14 ar
  25   13   18 ar
  26   13   37 1
  27   14   15 ar
  28   15   16 ar
  29   15   38 1
  30   16   17 ar
  31   16   19 1
  32   17   18 ar
  33   17   39 1
  34   19   20 ar
  35   19   24 ar
  36   20   21 ar
  37   20   40 1
  38   21   22 ar
  39   21   41 1
  40   22   23 ar
  41   22   42 1
  42   23   24 ar
  43   23   43 1
  44   24   44 1
  45   25   26 1
  46   25   45 1
  47   25   46 1
  48   26   27 1
  49   26   47 1
  50   26   48 1
  51   27   28 1
  52   27   49 1
  53   27   50 1
  54   28   51 1
  55   28   52 1
  56   28   53 1

#	End of record

