#	Name: ASD05130071
#	Creating user name:	WinNT
#	Creation time:	15. 06. 2019 20:56

#	Modifying user name:	WinNT
#	Modification time:	15. 06. 2019 20:56

#	Program:	/corina/corina34_cracker 3.40 0067  02.08.2006

@<TRIPOS>MOLECULE
ASD05130071
  69   73    0    0    0
SMALL
NO_CHARGES


@<TRIPOS>ATOM
   1 N1            -0.1620     1.5508     0.1045 N.am    
   2 C2             0.0503     0.4228     0.8110 C.2     
   3 O3             1.1175     0.2448     1.3660 O.2     
   4 N4            -0.9202    -0.5079     0.9022 N.am    
   5 C5            -0.6649    -1.7242     1.5453 C.ar    
   6 C6            -1.6757    -2.3640     2.2507 C.ar    
   7 C7            -1.4205    -3.5644     2.8843 C.ar    
   8 C8            -0.1601    -4.1293     2.8168 C.ar    
   9 C9             0.8486    -3.4945     2.1155 C.ar    
  10 C10            0.5982    -2.2970     1.4746 C.ar    
  11 C11            0.8124     2.5576     0.0826 C.ar    
  12 C12            0.4361     3.8865    -0.0892 C.ar    
  13 C13            1.3952     4.8835    -0.1109 C.ar    
  14 C14            2.7314     4.5649     0.0374 C.ar    
  15 C15            3.1164     3.2348     0.2101 C.ar    
  16 C16            2.1494     2.2309     0.2377 C.ar    
  17 F17           -0.8690     4.2037    -0.2356 F       
  18 N18            6.5391     2.8502     1.7786 N.am    
  19 C19            5.2367     3.1638     1.6329 C.2     
  20 C20            4.5488     2.8908     0.3689 C.2     
  21 C21            5.2375     2.3157    -0.6640 C.2     
  22 C22            6.6047     1.9964    -0.4868 C.ar    
  23 C23            7.3480     1.4074    -1.5170 C.ar    
  24 N24            8.6179     1.1174    -1.3360 N.ar    
  25 C25            9.2442     1.3641    -0.1903 C.ar    
  26 C26            8.5826     1.9451     0.8821 C.ar    
  27 C27            7.2388     2.2724     0.7444 C.ar    
  28 O28            4.6286     3.6746     2.5566 O.2     
  29 N29           10.5857     1.0338    -0.0637 N.pl3   
  30 N30           13.7162     2.0551     2.5647 N.3     
  31 C31           13.2451     0.6650     2.6104 C.3     
  32 C32           12.4779     0.3425     1.3261 C.3     
  33 C33           11.2901     1.2995     1.1930 C.3     
  34 C34           11.8039     2.7419     1.1965 C.3     
  35 C35           12.5907     2.9949     2.4846 C.3     
  36 C36           14.5742     2.3584     3.7179 C.3     
  37 C37            7.2174     3.1338     3.0457 C.3     
  38 C38            7.0843     1.9270     3.9768 C.3     
  39 Cl39           3.9313     5.8191     0.0084 Cl      
  40 H40           -0.9876     1.6640    -0.3920 H       
  41 H41           -1.7957    -0.3346     0.5222 H       
  42 H42           -2.6602    -1.9231     2.3041 H       
  43 H43           -2.2061    -4.0622     3.4333 H       
  44 H44            0.0369    -5.0680     3.3131 H       
  45 H45            1.8321    -3.9379     2.0653 H       
  46 H46            1.3850    -1.8043     0.9228 H       
  47 H47            1.0987     5.9134    -0.2445 H       
  48 H48            2.4425     1.2006     0.3753 H       
  49 H49            4.7442     2.1079    -1.6020 H       
  50 H50            6.8764     1.1902    -2.4640 H       
  51 H51            9.1032     2.1404     1.8080 H       
  52 H52           11.0573     0.6269    -0.8074 H       
  53 H53           14.0999    -0.0053     2.7009 H       
  54 H54           12.5874     0.5326     3.4694 H       
  55 H55           13.1390     0.4614     0.4677 H       
  56 H56           12.1150    -0.6845     1.3672 H       
  57 H57           10.6083     1.1527     2.0308 H       
  58 H58           12.4544     2.8986     0.3361 H       
  59 H59           10.9595     3.4292     1.1450 H       
  60 H60           11.9360     2.8515     3.3442 H       
  61 H61           12.9701     4.0167     2.4837 H       
  62 H62           15.4396     1.6957     3.7111 H       
  63 H63           14.9092     3.3940     3.6591 H       
  64 H64           14.0105     2.2106     4.6390 H       
  65 H65            8.2724     3.3322     2.8567 H       
  66 H66            6.7619     4.0062     3.5144 H       
  67 H67            7.5890     2.1380     4.9195 H       
  68 H68            6.0293     1.7286     4.1658 H       
  69 H69            7.5397     1.0546     3.5081 H       
@<TRIPOS>BOND
   1    1    2 am
   2    1   11 1
   3    1   40 1
   4    2    3 2
   5    2    4 am
   6    4    5 1
   7    4   41 1
   8    5    6 ar
   9    5   10 ar
  10    6    7 ar
  11    6   42 1
  12    7    8 ar
  13    7   43 1
  14    8    9 ar
  15    8   44 1
  16    9   10 ar
  17    9   45 1
  18   10   46 1
  19   11   12 ar
  20   11   16 ar
  21   12   13 ar
  22   12   17 1
  23   13   14 ar
  24   13   47 1
  25   14   15 ar
  26   14   39 1
  27   15   16 ar
  28   15   20 1
  29   16   48 1
  30   18   19 am
  31   18   27 1
  32   18   37 1
  33   19   20 1
  34   19   28 2
  35   20   21 2
  36   21   22 1
  37   21   49 1
  38   22   23 ar
  39   22   27 ar
  40   23   24 ar
  41   23   50 1
  42   24   25 ar
  43   25   26 ar
  44   25   29 1
  45   26   27 ar
  46   26   51 1
  47   29   33 1
  48   29   52 1
  49   30   31 1
  50   30   35 1
  51   30   36 1
  52   31   32 1
  53   31   53 1
  54   31   54 1
  55   32   33 1
  56   32   55 1
  57   32   56 1
  58   33   34 1
  59   33   57 1
  60   34   35 1
  61   34   58 1
  62   34   59 1
  63   35   60 1
  64   35   61 1
  65   36   62 1
  66   36   63 1
  67   36   64 1
  68   37   38 1
  69   37   65 1
  70   37   66 1
  71   38   67 1
  72   38   68 1
  73   38   69 1

#	End of record

