#	Name: ASD03730013
#	Creating user name:	WinNT
#	Creation time:	15. 06. 2019 20:43

#	Modifying user name:	WinNT
#	Modification time:	15. 06. 2019 20:43

#	Program:	/corina/corina34_cracker 3.40 0067  02.08.2006

@<TRIPOS>MOLECULE
ASD03730013
  55   60    0    0    0
SMALL
NO_CHARGES


@<TRIPOS>ATOM
   1 O1            -0.0174     1.4356     0.0099 O.3     
   2 C2             0.0021    -0.0041     0.0020 C.3     
   3 O3             1.2461    -0.3262    -0.6470 O.3     
   4 C4             2.0710     0.7345    -0.4034 C.ar    
   5 C5             1.2935     1.8178    -0.0005 C.ar    
   6 C6             3.4452     0.8649    -0.4936 C.ar    
   7 C7             4.0602     2.0747    -0.1856 C.ar    
   8 C8             3.2723     3.1522     0.2076 C.ar    
   9 C9             1.9024     3.0234     0.3045 C.ar    
  10 O10            5.3831     2.4065    -0.1922 O.3     
  11 C11            4.2098     4.3069     0.4393 C.3     
  12 C12            5.5129     3.8410    -0.2242 C.3     
  13 N13            3.6127     6.4762     0.8417 N.am    
  14 C14            3.6993     5.5834    -0.1645 C.2     
  15 C15            4.3992     4.6044     1.8972 C.ar    
  16 C16            4.8378     3.8614     2.9705 C.ar    
  17 C17            4.9039     4.4334     4.2285 C.ar    
  18 C18            4.5284     5.7527     4.4051 C.ar    
  19 C19            4.0877     6.5009     3.3334 C.ar    
  20 C20            4.0181     5.9334     2.0634 C.ar    
  21 O21            3.4201     5.7739    -1.3293 O.2     
  22 C22            3.1483     7.8554     0.6736 C.3     
  23 C23            1.6327     7.9114     0.8755 C.3     
  24 C24            1.1476     9.3518     0.6999 C.3     
  25 O25           -0.2679     9.4041     0.8885 O.3     
  26 C26           -0.8254    10.7120     0.7453 C.3     
  27 C27           -2.3152    10.6497     0.9637 C.ar    
  28 C28           -2.8354    10.8186     2.2332 C.ar    
  29 C29           -4.2020    10.7614     2.4335 C.ar    
  30 C30           -5.0484    10.5357     1.3641 C.ar    
  31 C31           -4.5283    10.3677     0.0944 C.ar    
  32 C32           -3.1620    10.4292    -0.1065 C.ar    
  33 H33           -0.0105    -0.3928     1.0203 H       
  34 H34           -0.8401    -0.3953    -0.5687 H       
  35 H35            4.0448     0.0222    -0.8046 H       
  36 H36            1.3032     3.8652     0.6186 H       
  37 H37            6.3787     4.1643     0.3536 H       
  38 H38            5.5749     4.2013    -1.2510 H       
  39 H39            5.1300     2.8312     2.8302 H       
  40 H40            5.2475     3.8510     5.0706 H       
  41 H41            4.5803     6.1993     5.3870 H       
  42 H42            3.7954     7.5303     3.4796 H       
  43 H43            3.6366     8.4954     1.4085 H       
  44 H44            3.3941     8.2017    -0.3303 H       
  45 H45            1.1443     7.2714     0.1406 H       
  46 H46            1.3868     7.5650     1.8794 H       
  47 H47            1.6360     9.9917     1.4348 H       
  48 H48            1.3935     9.6981    -0.3040 H       
  49 H49           -0.3780    11.3802     1.4812 H       
  50 H50           -0.6205    11.0865    -0.2576 H       
  51 H51           -2.1741    10.9949     3.0687 H       
  52 H52           -4.6083    10.8927     3.4255 H       
  53 H53           -6.1160    10.4903     1.5207 H       
  54 H54           -5.1895    10.1910    -0.7410 H       
  55 H55           -2.7558    10.3016    -1.0991 H       
@<TRIPOS>BOND
   1    1    2 1
   2    1    5 1
   3    2    3 1
   4    2   33 1
   5    2   34 1
   6    3    4 1
   7    4    5 ar
   8    4    6 ar
   9    5    9 ar
  10    6    7 ar
  11    6   35 1
  12    7    8 ar
  13    7   10 1
  14    8    9 ar
  15    8   11 1
  16    9   36 1
  17   10   12 1
  18   11   12 1
  19   11   14 1
  20   11   15 1
  21   12   37 1
  22   12   38 1
  23   13   14 am
  24   13   20 1
  25   13   22 1
  26   14   21 2
  27   15   16 ar
  28   15   20 ar
  29   16   17 ar
  30   16   39 1
  31   17   18 ar
  32   17   40 1
  33   18   19 ar
  34   18   41 1
  35   19   20 ar
  36   19   42 1
  37   22   23 1
  38   22   43 1
  39   22   44 1
  40   23   24 1
  41   23   45 1
  42   23   46 1
  43   24   25 1
  44   24   47 1
  45   24   48 1
  46   25   26 1
  47   26   27 1
  48   26   49 1
  49   26   50 1
  50   27   28 ar
  51   27   32 ar
  52   28   29 ar
  53   28   51 1
  54   29   30 ar
  55   29   52 1
  56   30   31 ar
  57   30   53 1
  58   31   32 ar
  59   31   54 1
  60   32   55 1

#	End of record

