#	Name: ASD00170556
#	Creating user name:	WinNT
#	Creation time:	15. 06. 2019 18:32

#	Modifying user name:	WinNT
#	Modification time:	15. 06. 2019 18:32

#	Program:	/corina/corina34_cracker 3.40 0067  02.08.2006

@<TRIPOS>MOLECULE
ASD00170556
  51   55    0    0    0
SMALL
NO_CHARGES


@<TRIPOS>ATOM
   1 C1            -0.5922     1.9716     0.0294 C.3     
   2 C2            -0.4888     0.4543    -0.0914 C.3     
   3 C3             0.2600    -0.0997     1.1242 C.3     
   4 N4            -0.4508     0.2811     2.3516 N.3     
   5 C5            -0.4978     1.7401     2.5106 C.3     
   6 C6            -1.2699     2.3568     1.3407 C.3     
   7 C7             0.1524    -0.3576     3.5290 C.3     
   8 C8            -0.4364     0.2393     4.7812 C.2     
   9 C9             0.1724     1.1684     5.5016 C.2     
  10 S10           -0.8035     1.6278     6.8852 S.3     
  11 C11           -2.0464     0.5390     6.4671 C.2     
  12 C12           -1.7276    -0.1409     5.3144 C.2     
  13 C13           -2.5945    -1.1460     4.6999 C.2     
  14 O14           -3.3909    -0.8188     3.8388 O.2     
  15 C15           -2.5037    -2.5597     5.1243 C.ar    
  16 C16           -3.4020    -3.5019     4.6199 C.ar    
  17 C17           -3.3122    -4.8188     5.0190 C.ar    
  18 C18           -2.3334    -5.2074     5.9187 C.ar    
  19 C19           -1.4396    -4.2771     6.4229 C.ar    
  20 C20           -1.5157    -2.9585     6.0264 C.ar    
  21 N21           -3.2139     0.3673     7.1828 N.pl3   
  22 Cl22          -2.2268    -6.8670     6.4169 Cl      
  23 O23            0.7093     2.5685    -0.0566 O.3     
  24 C24            0.5234     3.7504    -0.7156 C.ar    
  25 C25           -0.7180     3.7189    -1.3468 C.ar    
  26 O26           -1.3112     2.5163    -1.0855 O.3     
  27 C27            1.3276     4.8723    -0.8320 C.ar    
  28 C28            0.8977     5.9579    -1.5721 C.ar    
  29 C29           -0.3347     5.9271    -2.1977 C.ar    
  30 C30           -1.1428     4.8110    -2.0856 C.ar    
  31 H31           -1.4893     0.0233    -0.1300 H       
  32 H32            0.0540     0.1978    -1.0012 H       
  33 H33            0.3105    -1.1864     1.0558 H       
  34 H34            1.2697     0.3104     1.1469 H       
  35 H35           -0.9982     1.9876     3.4468 H       
  36 H36            0.5173     2.1368     2.5254 H       
  37 H37           -1.2769     3.4421     1.4414 H       
  38 H38           -2.2941     1.9841     1.3440 H       
  39 H39           -0.0516    -1.4281     3.5061 H       
  40 H40            1.2298    -0.1928     3.5197 H       
  41 H41            1.1403     1.5871     5.2689 H       
  42 H42           -4.1660    -3.1999     3.9189 H       
  43 H43           -4.0066    -5.5485     4.6295 H       
  44 H44           -0.6787    -4.5859     7.1244 H       
  45 H45           -0.8181    -2.2341     6.4199 H       
  46 H46           -3.3376     0.8287     8.0270 H       
  47 H47           -3.9109    -0.2147     6.8416 H       
  48 H48            2.2907     4.8990    -0.3441 H       
  49 H49            1.5261     6.8317    -1.6620 H       
  50 H50           -0.6675     6.7774    -2.7746 H       
  51 H51           -2.1050     4.7899    -2.5754 H       
@<TRIPOS>BOND
   1    1    2 1
   2    1   23 1
   3    1    6 1
   4    1   26 1
   5    2    3 1
   6    2   31 1
   7    2   32 1
   8    3    4 1
   9    3   33 1
  10    3   34 1
  11    4    5 1
  12    4    7 1
  13    5    6 1
  14    5   35 1
  15    5   36 1
  16    6   37 1
  17    6   38 1
  18    7    8 1
  19    7   39 1
  20    7   40 1
  21    8    9 2
  22    8   12 1
  23    9   10 1
  24    9   41 1
  25   10   11 1
  26   11   12 2
  27   11   21 1
  28   12   13 1
  29   13   14 2
  30   13   15 1
  31   15   16 ar
  32   15   20 ar
  33   16   17 ar
  34   16   42 1
  35   17   18 ar
  36   17   43 1
  37   18   19 ar
  38   18   22 1
  39   19   20 ar
  40   19   44 1
  41   20   45 1
  42   21   46 1
  43   21   47 1
  44   23   24 1
  45   24   25 ar
  46   24   27 ar
  47   25   26 1
  48   25   30 ar
  49   27   28 ar
  50   27   48 1
  51   28   29 ar
  52   28   49 1
  53   29   30 ar
  54   29   50 1
  55   30   51 1

#	End of record

