#	Name: ASD01810952
#	Creating user name:	WinNT
#	Creation time:	15. 06. 2019 19:25

#	Modifying user name:	WinNT
#	Modification time:	15. 06. 2019 19:25

#	Program:	/corina/corina34_cracker 3.40 0067  02.08.2006

@<TRIPOS>MOLECULE
ASD01810952
  32   33    0    0    0
SMALL
NO_CHARGES


@<TRIPOS>ATOM
   1 C1            -0.2580     1.4569     0.0997 C.2     
   2 C2            -0.1142    -0.0126     0.0456 C.ar    
   3 C3             1.1487    -0.5870    -0.1230 C.ar    
   4 C4             1.2850    -1.9598    -0.1733 C.ar    
   5 C5             0.1763    -2.7750    -0.0580 C.ar    
   6 C6            -1.0925    -2.2143     0.1109 C.ar    
   7 C7            -1.2367    -0.8290     0.1683 C.ar    
   8 O8             0.7295     2.1641     0.1021 O.2     
   9 O9            -1.4845     2.0125     0.1407 O.3     
  10 C10            0.3351    -4.2725    -0.1151 C.3     
  11 C11            2.3644     0.2944    -0.2507 C.3     
  12 C12            3.3946     0.2449     0.8794 C.3     
  13 C13            3.7136    -0.3913    -0.4750 C.3     
  14 C14           -2.2768    -3.0873     0.2340 C.2     
  15 N15           -2.9000    -3.5376    -0.8730 N.am    
  16 S16           -2.8584    -3.5277     1.7827 S.2     
  17 C17           -1.5500     3.4621     0.1927 C.3     
  18 H18            2.2633    -2.3983    -0.3037 H       
  19 H19           -2.2143    -0.3905     0.3032 H       
  20 H20            0.5833    -4.6496     0.8770 H       
  21 H21           -0.5978    -4.7241    -0.4526 H       
  22 H22            1.1345    -4.5269    -0.8110 H       
  23 H23            2.1998     1.2543    -0.7400 H       
  24 H24            3.9081     1.1723     1.1332 H       
  25 H25            3.1931    -0.4250     1.7152 H       
  26 H26            3.7220    -1.4799    -0.5302 H       
  27 H27            4.4370     0.1175    -1.1122 H       
  28 H28           -2.5704    -3.2881    -1.7505 H       
  29 H29           -3.6781    -4.1111    -0.7922 H       
  30 H30           -1.0376     3.8171     1.0868 H       
  31 H31           -1.0688     3.8795    -0.6918 H       
  32 H32           -2.5929     3.7779     0.2220 H       
@<TRIPOS>BOND
   1    1    2 1
   2    1    8 2
   3    1    9 1
   4    2    3 ar
   5    2    7 ar
   6    3    4 ar
   7    3   11 1
   8    4    5 ar
   9    4   18 1
  10    5    6 ar
  11    5   10 1
  12    6    7 ar
  13    6   14 1
  14    7   19 1
  15    9   17 1
  16   10   20 1
  17   10   21 1
  18   10   22 1
  19   11   12 1
  20   11   13 1
  21   11   23 1
  22   12   13 1
  23   12   24 1
  24   12   25 1
  25   13   26 1
  26   13   27 1
  27   14   15 am
  28   14   16 2
  29   15   28 1
  30   15   29 1
  31   17   30 1
  32   17   31 1
  33   17   32 1

#	End of record

