#	Name: ASD09120008
#	Creating user name:	WinNT
#	Creation time:	15. 06. 2019 21:21

#	Modifying user name:	WinNT
#	Modification time:	15. 06. 2019 21:21

#	Program:	/corina/corina34_cracker 3.40 0067  02.08.2006

@<TRIPOS>MOLECULE
ASD09120008
  30   31    0    0    0
SMALL
NO_CHARGES


@<TRIPOS>ATOM
   1 C1            -0.0159     1.3751     0.0176 C.ar    
   2 C2             0.0031    -0.0041     0.0138 C.ar    
   3 C3             1.2087    -0.6832    -0.0042 C.ar    
   4 C4             2.4029     0.0143    -0.0185 C.ar    
   5 C5             2.3992     1.3954    -0.0149 C.ar    
   6 C6             1.1849     2.0869     0.0028 C.ar    
   7 N7            -1.2695    -0.7598     0.0295 N.pl3   
   8 O8            -2.3316    -0.1638     0.0457 O.2     
   9 O9            -1.2547    -1.9777     0.0261 O.2     
  10 C10            1.1721     3.5641     0.0063 C.2     
  11 O11            2.2194     4.1811    -0.0066 O.2     
  12 N12           -0.0008     4.2278     0.0238 N.am    
  13 C13           -0.0138     5.6165     0.1361 C.ar    
  14 Cl14           3.8988     2.2699    -0.0317 Cl      
  15 C15           -1.2177     7.6828     0.1588 C.ar    
  16 C16           -1.2190     6.3035     0.0456 C.ar    
  17 N17            1.1209     6.2692     0.3335 N.ar    
  18 C18            1.1528     7.5831     0.4453 C.ar    
  19 C19           -0.0061     8.3295     0.3602 C.ar    
  20 C20            2.4708     8.2788     0.6694 C.3     
  21 H21           -0.9579     1.9032     0.0275 H       
  22 H22            1.2171    -1.7632    -0.0068 H       
  23 H23            3.3402    -0.5220    -0.0322 H       
  24 H24           -0.8359     3.7387    -0.0417 H       
  25 H25           -2.1385     8.2432     0.0928 H       
  26 H26           -2.1437     5.7681    -0.1114 H       
  27 H27            0.0295     9.4050     0.4523 H       
  28 H28            2.9173     8.5299    -0.2927 H       
  29 H29            2.3072     9.1910     1.2432 H       
  30 H30            3.1411     7.6186     1.2198 H       
@<TRIPOS>BOND
   1    1    2 ar
   2    1    6 ar
   3    1   21 1
   4    2    3 ar
   5    2    7 1
   6    3    4 ar
   7    3   22 1
   8    4    5 ar
   9    4   23 1
  10    5    6 ar
  11    5   14 1
  12    6   10 1
  13    7    8 2
  14    7    9 2
  15   10   11 2
  16   10   12 am
  17   12   13 1
  18   12   24 1
  19   13   17 ar
  20   13   16 ar
  21   15   16 ar
  22   15   19 ar
  23   15   25 1
  24   16   26 1
  25   17   18 ar
  26   18   19 ar
  27   18   20 1
  28   19   27 1
  29   20   28 1
  30   20   29 1
  31   20   30 1

#	End of record

