#	Name: ASD01208955
#	Creating user name:	WinNT
#	Creation time:	15. 06. 2019 19:10

#	Modifying user name:	WinNT
#	Modification time:	15. 06. 2019 19:10

#	Program:	/corina/corina34_cracker 3.40 0067  02.08.2006

@<TRIPOS>MOLECULE
ASD01208955
  55   59    0    0    0
SMALL
NO_CHARGES


@<TRIPOS>ATOM
   1 C1            -2.2304     1.6044    -0.9251 C.3     
   2 C2            -2.1546     0.0849    -1.1028 C.3     
   3 C3            -1.3721    -0.2302    -2.3814 C.3     
   4 C4            -2.0493     0.4605    -3.5681 C.3     
   5 C5            -2.8744     2.2242    -2.1680 C.3     
   6 C6            -1.4414    -0.5361     0.0999 C.3     
   7 C7            -1.5298    -2.0611     0.0137 C.3     
   8 C8            -0.7065    -2.6752     1.1166 C.2     
   9 N9             0.6325    -2.5222     1.1230 N.am    
  10 C10            1.4025    -3.1748     2.0802 C.2     
  11 N11           -2.9268    -2.4782     0.1571 N.pl3   
  12 C12           -3.6478    -3.1776    -0.7756 C.ar    
  13 C13           -4.9346    -3.3658    -0.2361 C.ar    
  14 C14           -4.9250    -2.7303     1.0778 C.2     
  15 N15           -3.7372    -2.2317     1.2701 N.2     
  16 O16           -1.2490    -3.3071     1.9983 O.2     
  17 O17           -2.1150     1.8671    -3.3247 O.3     
  18 C18           -3.3547    -3.6841    -2.0404 C.ar    
  19 C19           -4.3244    -4.3610    -2.7462 C.ar    
  20 C20           -5.5930    -4.5439    -2.2100 C.ar    
  21 C21           -5.9022    -4.0574    -0.9731 C.ar    
  22 C22           -7.2554    -5.3644     1.1365 C.3     
  23 C23           -8.4965    -5.8609     1.8810 C.3     
  24 C24           -7.6832    -6.8287     1.0191 C.3     
  25 S25            3.1557    -3.0771     2.2207 S.3     
  26 C26            3.1013    -4.1617     3.6088 C.2     
  27 C27            1.8268    -4.4876     3.8347 C.2     
  28 N28            0.9433    -3.9484     3.0155 N.2     
  29 F29            4.1664    -4.5900     4.3212 F       
  30 Cl30          -1.7742    -3.4622    -2.7236 Cl      
  31 S31           -7.5158    -4.2975    -0.3072 S.o2    
  32 O32           -7.9237    -2.9986     0.0998 O.2     
  33 O33           -8.2146    -4.9991    -1.3263 O.2     
  34 H34           -2.8328     1.8389    -0.0475 H       
  35 H35           -1.2256     2.0067    -0.7965 H       
  36 H36           -3.1620    -0.3237    -1.1818 H       
  37 H37           -0.3499     0.1350    -2.2822 H       
  38 H38           -1.3606    -1.3078    -2.5452 H       
  39 H39           -1.4725     0.2749    -4.4742 H       
  40 H40           -3.0576     0.0654    -3.6916 H       
  41 H41           -3.8936     1.8522    -2.2732 H       
  42 H42           -2.8921     3.3092    -2.0656 H       
  43 H43           -0.3946    -0.2322     0.0982 H       
  44 H44           -1.9170    -0.1960     1.0198 H       
  45 H45           -1.1488    -2.3932    -0.9521 H       
  46 H46            1.0593    -1.9570     0.4603 H       
  47 H47           -5.7535    -2.6854     1.7691 H       
  48 H48           -4.0965    -4.7532    -3.7263 H       
  49 H49           -6.3416    -5.0769    -2.7775 H       
  50 H50           -6.3672    -5.1452     1.7291 H       
  51 H51           -8.4246    -5.9687     2.9633 H       
  52 H52           -9.4693    -5.5464     1.5033 H       
  53 H53           -8.1210    -7.1509     0.0744 H       
  54 H54           -7.0763    -7.5732     1.5344 H       
  55 H55            1.5365    -5.1472     4.6391 H       
@<TRIPOS>BOND
   1    1    2 1
   2    1    5 1
   3    1   34 1
   4    1   35 1
   5    2    3 1
   6    2    6 1
   7    2   36 1
   8    3    4 1
   9    3   37 1
  10    3   38 1
  11    4   17 1
  12    4   39 1
  13    4   40 1
  14    5   17 1
  15    5   41 1
  16    5   42 1
  17    6    7 1
  18    6   43 1
  19    6   44 1
  20    7    8 1
  21    7   11 1
  22    7   45 1
  23    8    9 am
  24    8   16 2
  25    9   10 1
  26    9   46 1
  27   10   25 1
  28   10   28 2
  29   11   12 1
  30   11   15 1
  31   12   13 ar
  32   12   18 ar
  33   13   14 1
  34   13   21 ar
  35   14   15 2
  36   14   47 1
  37   18   19 ar
  38   18   30 1
  39   19   20 ar
  40   19   48 1
  41   20   21 ar
  42   20   49 1
  43   21   31 1
  44   22   23 1
  45   22   31 1
  46   22   24 1
  47   22   50 1
  48   23   24 1
  49   23   51 1
  50   23   52 1
  51   24   53 1
  52   24   54 1
  53   25   26 1
  54   26   27 2
  55   26   29 1
  56   27   28 1
  57   27   55 1
  58   31   32 2
  59   31   33 2

#	End of record

