#	Name: ASD01813663
#	Creating user name:	WinNT
#	Creation time:	15. 06. 2019 19:30

#	Modifying user name:	WinNT
#	Modification time:	15. 06. 2019 19:30

#	Program:	/corina/corina34_cracker 3.40 0067  02.08.2006

@<TRIPOS>MOLECULE
ASD01813663
  40   43    0    0    0
SMALL
NO_CHARGES


@<TRIPOS>ATOM
   1 C1             0.0988     1.4753     0.3556 C.ar    
   2 C2             0.0804     0.0890     0.3475 C.ar    
   3 C3             1.2503    -0.6313     0.2176 C.ar    
   4 C4             2.4682     0.0345     0.0920 C.ar    
   5 C5             2.4853     1.4397     0.0998 C.ar    
   6 C6             1.2933     2.1563     0.2326 C.ar    
   7 N7             3.6440    -0.6744    -0.0375 N.pl3   
   8 C8             4.8384    -0.0819    -0.1601 C.2     
   9 C9             4.9811     1.2910    -0.1654 C.2     
  10 C10            3.7796     2.1315    -0.0338 C.2     
  11 O11            3.8525     3.3479    -0.0334 O.2     
  12 C12            6.3100     1.9035    -0.3011 C.2     
  13 O13            6.4364     3.2456    -0.3049 O.3     
  14 O14            7.2954     1.1999    -0.4099 O.2     
  15 C15            3.5837    -2.1382    -0.0406 C.3     
  16 C16            3.4403    -2.6321    -1.4571 C.ar    
  17 C17            4.5547    -2.7790    -2.2604 C.ar    
  18 N18            4.4427    -3.2096    -3.5013 N.ar    
  19 C19            3.2637    -3.5180    -4.0266 C.ar    
  20 C20            2.0978    -3.3936    -3.2719 C.ar    
  21 C21            2.1874    -2.9490    -1.9652 C.ar    
  22 F22            1.2151    -1.9818     0.2125 F       
  23 F23            1.3095     3.5072     0.2397 F       
  24 C24            3.1855    -3.9979    -5.4266 C.2     
  25 C25            2.0165    -4.2338    -6.0525 C.2     
  26 S26            2.3289    -4.7872    -7.6922 S.3     
  27 C27            4.0647    -4.6679    -7.4401 C.2     
  28 C28            4.3159    -4.2371    -6.2071 C.2     
  29 H29           -0.8257     2.0248     0.4540 H       
  30 H30           -0.8601    -0.4330     0.4445 H       
  31 H31            5.7196    -0.6986    -0.2577 H       
  32 H32            7.3307     3.6021    -0.3966 H       
  33 H33            4.4990    -2.5405     0.3935 H       
  34 H34            2.7272    -2.4678     0.5476 H       
  35 H35            5.5309    -2.5375    -1.8665 H       
  36 H36            1.1387    -3.6444    -3.7004 H       
  37 H37            1.3018    -2.8430    -1.3562 H       
  38 H38            1.0379    -4.1035    -5.6147 H       
  39 H39            4.8160    -4.9055    -8.1786 H       
  40 H40            5.3195    -4.0900    -5.8364 H       
@<TRIPOS>BOND
   1    1    2 ar
   2    1    6 ar
   3    1   29 1
   4    2    3 ar
   5    2   30 1
   6    3   22 1
   7    3    4 ar
   8    4    5 ar
   9    4    7 1
  10    5    6 ar
  11    5   10 1
  12    6   23 1
  13    7    8 1
  14    7   15 1
  15    8    9 2
  16    8   31 1
  17    9   10 1
  18    9   12 1
  19   10   11 2
  20   12   13 1
  21   12   14 2
  22   13   32 1
  23   15   16 1
  24   15   33 1
  25   15   34 1
  26   16   17 ar
  27   16   21 ar
  28   17   18 ar
  29   17   35 1
  30   18   19 ar
  31   19   20 ar
  32   19   24 1
  33   20   21 ar
  34   20   36 1
  35   21   37 1
  36   24   25 2
  37   24   28 1
  38   25   26 1
  39   25   38 1
  40   26   27 1
  41   27   28 2
  42   27   39 1
  43   28   40 1

#	End of record

