#	Name: ASD03081129
#	Creating user name:	WinNT
#	Creation time:	15. 06. 2019 20:27

#	Modifying user name:	WinNT
#	Modification time:	15. 06. 2019 20:27

#	Program:	/corina/corina34_cracker 3.40 0067  02.08.2006

@<TRIPOS>MOLECULE
ASD03081129
  39   41    0    0    0
SMALL
NO_CHARGES


@<TRIPOS>ATOM
   1 C1            -0.0155     1.2890     0.0091 C.2     
   2 N2             0.0021    -0.0041     0.0020 N.am    
   3 N3             1.1615     1.9901     0.0017 N.pl3   
   4 S4            -1.4206    -0.8515     0.0111 S.o2    
   5 O5            -2.0320    -0.5958     1.2681 O.2     
   6 O6            -2.0559    -0.5824    -1.2312 O.2     
   7 C7            -1.0076    -2.5643    -0.0021 C.ar    
   8 C8            -0.8346    -3.2403     1.1927 C.ar    
   9 C9            -0.5116    -4.5816     1.1894 C.ar    
  10 C10           -0.3593    -5.2565    -0.0227 C.ar    
  11 C11           -0.5351    -4.5687    -1.2244 C.ar    
  12 C12           -0.8632    -3.2288    -1.2071 C.ar    
  13 O13            0.1850    -7.4767     1.0380 O.3     
  14 N14            0.4545    -8.6041     0.6818 N.2     
  15 C15            0.4621    -8.6787    -0.6241 C.2     
  16 N16            0.1620    -7.4521    -1.0995 N.2     
  17 C17           -0.0127    -6.6936    -0.0338 C.2     
  18 C18            0.7271    -9.8468    -2.8299 C.ar    
  19 C19            0.7482    -9.8901    -1.4342 C.ar    
  20 C20            1.0485   -11.1134    -0.8249 C.ar    
  21 C21            1.3045   -12.1988    -1.6454 C.ar    
  22 N22            1.2606   -12.0583    -2.9567 N.ar    
  23 N23            0.9859   -10.9394    -3.5208 N.ar    
  24 C24            2.4400     1.2750    -0.0144 C.3     
  25 C25            1.1417     3.4550     0.0097 C.3     
  26 H26           -0.9580     1.8163     0.0165 H       
  27 H27           -0.9525    -2.7168     2.1299 H       
  28 H28           -0.3765    -5.1080     2.1226 H       
  29 H29           -0.4186    -5.0852    -2.1657 H       
  30 H30           -1.0039    -2.6964    -2.1361 H       
  31 H31            0.4956    -8.9238    -3.3407 H       
  32 H32            1.0798   -11.2078     0.2505 H       
  33 H33            1.5404   -13.1597    -1.2124 H       
  34 H34            2.7473     1.1031    -1.0460 H       
  35 H35            3.1965     1.8716     0.4955 H       
  36 H36            2.3275     0.3181     0.4954 H       
  37 H37            1.1466     3.8127     1.0393 H       
  38 H38            2.0217     3.8331    -0.5105 H       
  39 H39            0.2420     3.8089    -0.4937 H       
@<TRIPOS>BOND
   1    1    2 2
   2    1    3 1
   3    1   26 1
   4    2    4 am
   5    3   24 1
   6    3   25 1
   7    4    5 2
   8    4    6 2
   9    4    7 1
  10    7    8 ar
  11    7   12 ar
  12    8    9 ar
  13    8   27 1
  14    9   10 ar
  15    9   28 1
  16   10   11 ar
  17   10   17 1
  18   11   12 ar
  19   11   29 1
  20   12   30 1
  21   13   14 1
  22   13   17 1
  23   14   15 2
  24   15   16 1
  25   15   19 1
  26   16   17 2
  27   18   19 ar
  28   18   23 ar
  29   18   31 1
  30   19   20 ar
  31   20   21 ar
  32   20   32 1
  33   21   22 ar
  34   21   33 1
  35   22   23 ar
  36   24   34 1
  37   24   35 1
  38   24   36 1
  39   25   37 1
  40   25   38 1
  41   25   39 1

#	End of record

