#	Name: ASD03090911
#	Creating user name:	WinNT
#	Creation time:	15. 06. 2019 20:29

#	Modifying user name:	WinNT
#	Modification time:	15. 06. 2019 20:29

#	Program:	/corina/corina34_cracker 3.40 0067  02.08.2006

@<TRIPOS>MOLECULE
ASD03090911
  49   52    0    0    0
SMALL
NO_CHARGES


@<TRIPOS>ATOM
   1 N1            -0.0153     1.3319     0.0571 N.2     
   2 C2             0.0031    -0.0039     0.0705 C.2     
   3 O3             1.0668    -0.5989     0.0535 O.2     
   4 N4            -1.1544    -0.6935     0.1028 N.am    
   5 C5            -1.1341    -2.1583     0.1175 C.3     
   6 C6            -0.9701    -2.6517     1.5565 C.3     
   7 C7            -2.4275    -2.6843    -0.4495 C.ar    
   8 C8            -2.4191    -3.7877    -1.2821 C.ar    
   9 C9            -3.6055    -4.2701    -1.8023 C.ar    
  10 C10           -4.8004    -3.6494    -1.4895 C.ar    
  11 C11           -4.8089    -2.5465    -0.6561 C.ar    
  12 C12           -3.6230    -2.0667    -0.1325 C.ar    
  13 S13            2.7229     1.3646    -0.0035 S.3     
  14 C14            1.1278     2.0130     0.0251 C.2     
  15 N15            1.2769     3.3616     0.0079 N.pl3   
  16 C16            2.5513     3.8402    -0.0252 C.2     
  17 C17            3.5279     2.9428    -0.0376 C.2     
  18 O18           -3.0791     6.7791     0.0762 O.3     
  19 C19           -4.3283     6.2612    -0.3940 C.3     
  20 C20           -4.5447     4.8802     0.2394 C.3     
  21 O21           -3.4608     4.0318    -0.1546 O.3     
  22 C22           -2.2079     4.5548    -0.0574 C.ar    
  23 C23           -2.0166     5.9274     0.0554 C.ar    
  24 C24           -1.1139     3.7040    -0.0722 C.ar    
  25 C25            0.1702     4.2224     0.0231 C.ar    
  26 C26            0.3582     5.5932     0.1329 C.ar    
  27 C27           -0.7321     6.4417     0.1492 C.ar    
  28 F28           -4.5685     4.9988     1.6331 F       
  29 F29           -5.7544     4.3395    -0.2095 F       
  30 F30           -5.3666     7.1204    -0.0186 F       
  31 F31           -4.2948     6.1412    -1.7875 F       
  32 C32            5.0107     3.2094    -0.0731 C.3     
  33 H33           -2.0008    -0.2200     0.1163 H       
  34 H34           -0.3004    -2.5163    -0.4865 H       
  35 H35           -0.9551    -3.7415     1.5674 H       
  36 H36           -0.0346    -2.2713     1.9666 H       
  37 H37           -1.8039    -2.2937     2.1605 H       
  38 H38           -1.4856    -4.2727    -1.5266 H       
  39 H39           -3.5989    -5.1318    -2.4534 H       
  40 H40           -5.7273    -4.0259    -1.8964 H       
  41 H41           -5.7424    -2.0614    -0.4120 H       
  42 H42           -3.6300    -1.2073     0.5216 H       
  43 H43            2.7571     4.9003    -0.0411 H       
  44 H44           -1.2606     2.6375    -0.1583 H       
  45 H45            1.3572     5.9968     0.2061 H       
  46 H46           -0.5836     7.5080     0.2348 H       
  47 H47            5.5502     2.2623    -0.0758 H       
  48 H48            5.2575     3.7706    -0.9744 H       
  49 H49            5.2970     3.7882     0.8050 H       
@<TRIPOS>BOND
   1    1    2 1
   2    1   14 2
   3    2    3 2
   4    2    4 am
   5    4    5 1
   6    4   33 1
   7    5    6 1
   8    5    7 1
   9    5   34 1
  10    6   35 1
  11    6   36 1
  12    6   37 1
  13    7    8 ar
  14    7   12 ar
  15    8    9 ar
  16    8   38 1
  17    9   10 ar
  18    9   39 1
  19   10   11 ar
  20   10   40 1
  21   11   12 ar
  22   11   41 1
  23   12   42 1
  24   13   14 1
  25   13   17 1
  26   14   15 1
  27   15   16 1
  28   15   25 1
  29   16   17 2
  30   16   43 1
  31   17   32 1
  32   18   19 1
  33   18   23 1
  34   19   20 1
  35   19   30 1
  36   19   31 1
  37   20   21 1
  38   20   28 1
  39   20   29 1
  40   21   22 1
  41   22   23 ar
  42   22   24 ar
  43   23   27 ar
  44   24   25 ar
  45   24   44 1
  46   25   26 ar
  47   26   27 ar
  48   26   45 1
  49   27   46 1
  50   32   47 1
  51   32   48 1
  52   32   49 1

#	End of record

