#	Name: ASD01150278
#	Creating user name:	WinNT
#	Creation time:	15. 06. 2019 19:03

#	Modifying user name:	WinNT
#	Modification time:	15. 06. 2019 19:03

#	Program:	/corina/corina34_cracker 3.40 0067  02.08.2006

@<TRIPOS>MOLECULE
ASD01150278
  66   69    0    0    0
SMALL
NO_CHARGES


@<TRIPOS>ATOM
   1 C1            -0.0158     1.3123     0.0093 C.2     
   2 N2             0.0021    -0.0041     0.0020 N.2     
   3 C3            -1.2464    -0.4793     0.0119 C.2     
   4 C4            -2.1135     0.6063     0.0263 C.2     
   5 N5            -1.3045     1.7452     0.0298 N.pl3   
   6 N6             1.0958     2.1231     0.0030 N.3     
   7 C7             2.3292     1.3253    -0.0137 C.3     
   8 C8             1.0586     3.0586    -1.1289 C.3     
   9 C9            -1.7378     3.0773     0.0440 C.ar    
  10 N10           -1.6125    -1.8198     0.0079 N.am    
  11 C11           -3.5221     0.5666     0.0401 C.2     
  12 O12           -4.2300     1.7166     0.0528 O.3     
  13 O13           -4.1011    -0.5048     0.0405 O.2     
  14 C14           -5.6543     1.6016     0.0663 C.3     
  15 C15           -6.0922     0.8355     1.3162 C.3     
  16 C16           -6.2786     2.9984     0.0794 C.3     
  17 C17           -6.1170     0.8479    -1.1821 C.3     
  18 C18           -1.4622     3.8870     1.1378 C.ar    
  19 C19           -1.8908     5.1999     1.1488 C.ar    
  20 C20           -2.5942     5.7081     0.0721 C.ar    
  21 C21           -2.8702     4.9042    -1.0187 C.ar    
  22 C22           -2.4389     3.5923    -1.0383 C.ar    
  23 C23           -0.6642    -2.7773    -0.0066 C.2     
  24 C24           -1.0525    -4.1991    -0.0108 C.2     
  25 O25            0.5119    -2.4682    -0.0162 O.2     
  26 C26           -2.4142    -4.7448    -0.0012 C.2     
  27 C27           -2.2729    -6.0935    -0.0107 C.2     
  28 O28           -0.9610    -6.3928    -0.0250 O.3     
  29 C29           -0.2189    -5.2811    -0.0305 C.2     
  30 C30            1.2871    -5.2299    -0.0460 C.3     
  31 C31           -3.3790    -7.0745    -0.0058 C.ar    
  32 C32           -3.1022    -8.4424    -0.0168 C.ar    
  33 C33           -4.1385    -9.3529    -0.0121 C.ar    
  34 C34           -5.4510    -8.9121     0.0030 C.ar    
  35 C35           -5.7318    -7.5562     0.0139 C.ar    
  36 C36           -4.7039    -6.6363     0.0157 C.ar    
  37 Cl37          -6.7498   -10.0640     0.0076 Cl      
  38 H38            2.3464     0.7016    -0.9074 H       
  39 H39            3.1923     1.9909    -0.0183 H       
  40 H40            2.3639     0.6915     0.8724 H       
  41 H41            0.1696     3.6849    -1.0537 H       
  42 H42            1.9487     3.6875    -1.1100 H       
  43 H43            1.0299     2.4977    -2.0631 H       
  44 H44           -2.5506    -2.0664     0.0156 H       
  45 H45           -5.7626     1.3725     2.2056 H       
  46 H46           -7.1786     0.7478     1.3265 H       
  47 H47           -5.6474    -0.1596     1.3068 H       
  48 H48           -5.9666     3.5442    -0.8110 H       
  49 H49           -7.3650     2.9107     0.0897 H       
  50 H50           -5.9490     3.5354     0.9688 H       
  51 H51           -5.6722    -0.1472    -1.1915 H       
  52 H52           -7.2034     0.7601    -1.1718 H       
  53 H53           -5.8050     1.3937    -2.0726 H       
  54 H54           -0.9135     3.4904     1.9793 H       
  55 H55           -1.6767     5.8301     1.9993 H       
  56 H56           -2.9289     6.7348     0.0833 H       
  57 H57           -3.4198     5.3040    -1.8581 H       
  58 H58           -2.6548     2.9650    -1.8905 H       
  59 H59           -3.3391    -4.1872     0.0114 H       
  60 H60            1.6851    -6.2447    -0.0518 H       
  61 H61            1.6236    -4.7026    -0.9387 H       
  62 H62            1.6421    -4.7055     0.8412 H       
  63 H63           -2.0789    -8.7874    -0.0292 H       
  64 H64           -3.9256   -10.4117    -0.0206 H       
  65 H65           -6.7575    -7.2183     0.0256 H       
  66 H66           -4.9241    -5.5790     0.0242 H       
@<TRIPOS>BOND
   1    1    2 2
   2    1    6 1
   3    1    5 1
   4    2    3 1
   5    3    4 2
   6    3   10 1
   7    4    5 1
   8    4   11 1
   9    5    9 1
  10    6    7 1
  11    6    8 1
  12    7   38 1
  13    7   39 1
  14    7   40 1
  15    8   41 1
  16    8   42 1
  17    8   43 1
  18    9   18 ar
  19    9   22 ar
  20   10   23 am
  21   10   44 1
  22   11   12 1
  23   11   13 2
  24   12   14 1
  25   14   15 1
  26   14   16 1
  27   14   17 1
  28   15   45 1
  29   15   46 1
  30   15   47 1
  31   16   48 1
  32   16   49 1
  33   16   50 1
  34   17   51 1
  35   17   52 1
  36   17   53 1
  37   18   19 ar
  38   18   54 1
  39   19   20 ar
  40   19   55 1
  41   20   21 ar
  42   20   56 1
  43   21   22 ar
  44   21   57 1
  45   22   58 1
  46   23   24 1
  47   23   25 2
  48   24   26 1
  49   24   29 2
  50   26   27 2
  51   26   59 1
  52   27   28 1
  53   27   31 1
  54   28   29 1
  55   29   30 1
  56   30   60 1
  57   30   61 1
  58   30   62 1
  59   31   32 ar
  60   31   36 ar
  61   32   33 ar
  62   32   63 1
  63   33   34 ar
  64   33   64 1
  65   34   35 ar
  66   34   37 1
  67   35   36 ar
  68   35   65 1
  69   36   66 1

#	End of record

