#	Name: ASD01882454
#	Creating user name:	WinNT
#	Creation time:	15. 06. 2019 19:44

#	Modifying user name:	WinNT
#	Modification time:	15. 06. 2019 19:44

#	Program:	/corina/corina34_cracker 3.40 0067  02.08.2006

@<TRIPOS>MOLECULE
ASD01882454
  57   61    0    0    0
SMALL
NO_CHARGES


@<TRIPOS>ATOM
   1 C1            -0.2608     1.2733    -1.2230 C.2     
   2 C2             0.0213    -0.0959    -1.0808 C.2     
   3 C3             0.0322    -0.6480     0.1713 C.2     
   4 C4            -0.2392     0.1647     1.2936 C.2     
   5 C5            -0.5072     1.4754     1.1342 C.2     
   6 N6            -0.5205     2.0355    -0.1099 N.pl3   
   7 N7            -0.6319     3.2709    -1.8711 N.2     
   8 N8            -0.3392     2.0826    -2.2683 N.2     
   9 C9            -0.7524     3.2985    -0.5700 C.2     
  10 C10            0.3078    -0.9457    -2.2919 C.3     
  11 F11           -0.8323    -1.6861    -2.6224 F       
  12 F12            0.6570    -0.1221    -3.3675 F       
  13 F13            1.3648    -1.8179    -2.0102 F       
  14 N14            0.3084    -2.0018     0.3374 N.pl3   
  15 C15            1.6553    -2.4567     0.7145 C.3     
  16 C16            1.5325    -3.3942     1.9205 C.3     
  17 N17            0.5794    -4.4673     1.6074 N.3     
  18 C18           -0.7673    -3.9311     1.3688 C.3     
  19 C19           -0.7402    -3.0152     0.1463 C.3     
  20 C20            2.9006    -4.0023     2.2358 C.3     
  21 C21            1.0326    -2.6048     3.1320 C.3     
  22 C22            0.5624    -5.4320     2.6172 C.ar    
  23 C23           -0.0680    -5.1633     3.8251 C.ar    
  24 C24           -0.0836    -6.1203     4.8240 C.ar    
  25 C25            0.5292    -7.3452     4.6203 C.ar    
  26 C26            1.1588    -7.6151     3.4168 C.ar    
  27 C27            1.1711    -6.6635     2.4127 C.ar    
  28 F28            1.7563    -8.8109     3.2209 F       
  29 F29           -0.6968    -5.8594     5.9992 F       
  30 C30           -1.0846     4.5056     0.2688 C.3     
  31 C31            0.2082     5.2164     0.6743 C.3     
  32 C32            0.0792     6.5375     1.4352 C.3     
  33 C33            0.5437     5.2760     2.1659 C.3     
  34 H34           -0.2322    -0.2662     2.2839 H       
  35 H35           -0.7138     2.0883     1.9991 H       
  36 H36            2.1083    -2.9914    -0.1203 H       
  37 H37            2.2710    -1.5974     0.9800 H       
  38 H38           -1.4605    -4.7538     1.1934 H       
  39 H39           -1.0914    -3.3613     2.2396 H       
  40 H40           -1.7075    -2.5249     0.0362 H       
  41 H41           -0.5219    -3.6046    -0.7442 H       
  42 H42            3.6383    -3.2059     2.3340 H       
  43 H43            2.8431    -4.5616     3.1696 H       
  44 H44            3.1950    -4.6727     1.4283 H       
  45 H45            0.0488    -2.1892     2.9141 H       
  46 H46            0.9641    -3.2677     3.9945 H       
  47 H47            1.7288    -1.7951     3.3505 H       
  48 H48           -0.5455    -4.2078     3.9847 H       
  49 H49            0.5164    -8.0911     5.4013 H       
  50 H50            1.6578    -6.8764     1.4724 H       
  51 H51           -1.7090     5.1881    -0.3078 H       
  52 H52           -1.6215     4.1898     1.1633 H       
  53 H53            1.0383     5.1174    -0.0251 H       
  54 H54            0.8248     7.3074     1.2368 H       
  55 H55           -0.9266     6.9002     1.6470 H       
  56 H56           -0.1566     4.8088     2.8583 H       
  57 H57            1.5948     5.2160     2.4481 H       
@<TRIPOS>BOND
   1    1    2 1
   2    1    6 1
   3    1    8 2
   4    2    3 2
   5    2   10 1
   6    3    4 1
   7    3   14 1
   8    4    5 2
   9    4   34 1
  10    5    6 1
  11    5   35 1
  12    6    9 1
  13    7    8 1
  14    7    9 2
  15    9   30 1
  16   10   11 1
  17   10   12 1
  18   10   13 1
  19   14   15 1
  20   14   19 1
  21   15   16 1
  22   15   36 1
  23   15   37 1
  24   16   17 1
  25   16   20 1
  26   16   21 1
  27   17   18 1
  28   17   22 1
  29   18   19 1
  30   18   38 1
  31   18   39 1
  32   19   40 1
  33   19   41 1
  34   20   42 1
  35   20   43 1
  36   20   44 1
  37   21   45 1
  38   21   46 1
  39   21   47 1
  40   22   23 ar
  41   22   27 ar
  42   23   24 ar
  43   23   48 1
  44   24   25 ar
  45   24   29 1
  46   25   26 ar
  47   25   49 1
  48   26   27 ar
  49   26   28 1
  50   27   50 1
  51   30   31 1
  52   30   51 1
  53   30   52 1
  54   31   32 1
  55   31   33 1
  56   31   53 1
  57   32   33 1
  58   32   54 1
  59   32   55 1
  60   33   56 1
  61   33   57 1

#	End of record

