#	Name: ASD02500719
#	Creating user name:	WinNT
#	Creation time:	15. 06. 2019 20:23

#	Modifying user name:	WinNT
#	Modification time:	15. 06. 2019 20:23

#	Program:	/corina/corina34_cracker 3.40 0067  02.08.2006

@<TRIPOS>MOLECULE
ASD02500719
  64   68    0    0    0
SMALL
NO_CHARGES


@<TRIPOS>ATOM
   1 N1            -3.4637     6.0429    -2.0700 N.ar    
   2 C2            -4.0547     6.6764    -3.0538 C.ar    
   3 C3            -5.4428     6.7486    -3.1504 C.ar    
   4 C4            -6.2241     6.1491    -2.2041 C.ar    
   5 C5            -5.5860     5.4693    -1.1493 C.ar    
   6 C6            -6.3228     4.8296    -0.1400 C.ar    
   7 C7            -5.6683     4.1828     0.8638 C.ar    
   8 C8            -4.2762     4.1476     0.9031 C.ar    
   9 C9            -3.5307     4.7571    -0.0589 C.ar    
  10 C10           -4.1698     5.4349    -1.1114 C.ar    
  11 S11           -1.7713     4.6975     0.0155 S.o2    
  12 O12           -1.3159     6.0285    -0.1849 O.2     
  13 O13           -1.4441     3.9289     1.1651 O.2     
  14 N14           -1.2546     3.8244    -1.2933 N.am    
  15 C15           -1.5922     2.4805    -1.4098 C.ar    
  16 C16           -2.0783     1.9890    -2.6176 C.ar    
  17 C17           -2.4140     0.6582    -2.7360 C.ar    
  18 C18           -2.2650    -0.1989    -1.6398 C.ar    
  19 C19           -1.7758     0.2993    -0.4286 C.ar    
  20 C20           -1.4376     1.6286    -0.3193 C.ar    
  21 Cl21          -3.0215     0.0455    -4.2424 Cl      
  22 C22           -2.6235    -1.6239    -1.7618 C.2     
  23 O23           -3.7367    -1.9411    -2.1345 O.2     
  24 N24           -1.7174    -2.5750    -1.4602 N.am    
  25 C25           -2.0523    -3.9240    -1.6762 C.3     
  26 C26           -1.9546    -4.7261    -0.3536 C.3     
  27 N27           -0.5551    -4.8902    -0.0172 N.3     
  28 C28           -0.0042    -3.8723     0.9013 C.3     
  29 C29           -0.4420    -2.4468     0.5686 C.3     
  30 C30           -0.4055    -2.1635    -0.9202 C.3     
  31 C31           -0.2887    -6.2468     0.4795 C.3     
  32 C32           -0.5094    -7.2409    -0.6314 C.ar    
  33 C33            0.5370    -7.5900    -1.4645 C.ar    
  34 C34            0.3345    -8.5018    -2.4836 C.ar    
  35 C35           -0.9142    -9.0649    -2.6692 C.ar    
  36 C36           -1.9604    -8.7165    -1.8355 C.ar    
  37 C37           -1.7568    -7.8080    -0.8137 C.ar    
  38 H38           -3.4496     7.1553    -3.8093 H       
  39 H39           -5.9005     7.2786    -3.9726 H       
  40 H40           -7.3015     6.1954    -2.2632 H       
  41 H41           -7.4024     4.8506    -0.1593 H       
  42 H42           -6.2359     3.6910     1.6399 H       
  43 H43           -3.7804     3.6287     1.7102 H       
  44 H44           -0.7165     4.2505    -1.9787 H       
  45 H45           -2.1928     2.6516    -3.4628 H       
  46 H46           -1.6599    -0.3593     0.4194 H       
  47 H47           -1.0556     2.0127     0.6150 H       
  48 H48           -3.0709    -3.9848    -2.0594 H       
  49 H49           -1.3671    -4.3519    -2.4080 H       
  50 H50           -2.4612    -4.1815     0.4432 H       
  51 H51           -2.4171    -5.7045    -0.4837 H       
  52 H52           -0.3254    -4.1078     1.9159 H       
  53 H53            1.0841    -3.9207     0.8631 H       
  54 H54           -1.4580    -2.2956     0.9332 H       
  55 H55            0.2210    -1.7465     1.0768 H       
  56 H56            0.3891    -2.7419    -1.3915 H       
  57 H57           -0.2476    -1.0995    -1.0962 H       
  58 H58            0.7431    -6.3111     0.8249 H       
  59 H59           -0.9632    -6.4700     1.3061 H       
  60 H60            1.5126    -7.1500    -1.3195 H       
  61 H61            1.1519    -8.7740    -3.1349 H       
  62 H62           -1.0726    -9.7768    -3.4658 H       
  63 H63           -2.9361    -9.1562    -1.9807 H       
  64 H64           -2.5733    -7.5386    -0.1601 H       
@<TRIPOS>BOND
   1    1    2 ar
   2    1   10 ar
   3    2    3 ar
   4    2   38 1
   5    3    4 ar
   6    3   39 1
   7    4    5 ar
   8    4   40 1
   9    5    6 ar
  10    5   10 ar
  11    6    7 ar
  12    6   41 1
  13    7    8 ar
  14    7   42 1
  15    8    9 ar
  16    8   43 1
  17    9   10 ar
  18    9   11 1
  19   11   12 2
  20   11   13 2
  21   11   14 am
  22   14   15 1
  23   14   44 1
  24   15   16 ar
  25   15   20 ar
  26   16   17 ar
  27   16   45 1
  28   17   18 ar
  29   17   21 1
  30   18   19 ar
  31   18   22 1
  32   19   20 ar
  33   19   46 1
  34   20   47 1
  35   22   23 2
  36   22   24 am
  37   24   25 1
  38   24   30 1
  39   25   26 1
  40   25   48 1
  41   25   49 1
  42   26   27 1
  43   26   50 1
  44   26   51 1
  45   27   28 1
  46   27   31 1
  47   28   29 1
  48   28   52 1
  49   28   53 1
  50   29   30 1
  51   29   54 1
  52   29   55 1
  53   30   56 1
  54   30   57 1
  55   31   32 1
  56   31   58 1
  57   31   59 1
  58   32   33 ar
  59   32   37 ar
  60   33   34 ar
  61   33   60 1
  62   34   35 ar
  63   34   61 1
  64   35   36 ar
  65   35   62 1
  66   36   37 ar
  67   36   63 1
  68   37   64 1

#	End of record

