#	Name: ASD00170167
#	Creating user name:	WinNT
#	Creation time:	15. 06. 2019 18:31

#	Modifying user name:	WinNT
#	Modification time:	15. 06. 2019 18:31

#	Program:	/corina/corina34_cracker 3.40 0067  02.08.2006

@<TRIPOS>MOLECULE
ASD00170167
  30   32    0    0    0
SMALL
NO_CHARGES


@<TRIPOS>ATOM
   1 C1            -0.0267     1.3320    -0.1409 C.2     
   2 C2            -0.0036     0.0041    -0.1777 C.2     
   3 C3            -1.3277    -0.5835     0.0171 C.2     
   4 C4            -2.3112     0.3520     0.1958 C.2     
   5 S5            -1.6639     1.9238     0.1397 S.3     
   6 N6            -3.6444     0.0595     0.3992 N.pl3   
   7 C7            -1.5768    -2.0246     0.0202 C.2     
   8 C8            -1.8229    -2.7355    -1.2536 C.ar    
   9 C9             1.3744     1.8950    -0.3488 C.3     
  10 C10            2.3221     0.7096    -0.0761 C.3     
  11 C11            1.4195    -0.4933    -0.4159 C.3     
  12 O12           -1.5815    -2.6394     1.0713 O.2     
  13 C13           -1.9542    -4.1246    -1.2667 C.ar    
  14 C14           -2.1839    -4.7819    -2.4592 C.ar    
  15 C15           -2.2833    -4.0651    -3.6396 C.ar    
  16 C16           -2.1534    -2.6876    -3.6324 C.ar    
  17 C17           -1.9305    -2.0188    -2.4467 C.ar    
  18 Cl18          -2.3477    -6.5101    -2.4785 Cl      
  19 H19           -3.9531    -0.8585     0.3458 H       
  20 H20           -4.2727     0.7719     0.5956 H       
  21 H21            1.4933     2.2476    -1.3733 H       
  22 H22            1.5665     2.7039     0.3562 H       
  23 H23            3.1906     0.7445    -0.7339 H       
  24 H24            2.6272     0.6860     0.9700 H       
  25 H25            1.6429    -1.3327     0.2425 H       
  26 H26            1.5503    -0.7829    -1.4585 H       
  27 H27           -1.8761    -4.6843    -0.3464 H       
  28 H28           -2.4626    -4.5835    -4.5700 H       
  29 H29           -2.2313    -2.1343    -4.5566 H       
  30 H30           -1.8294    -0.9436    -2.4429 H       
@<TRIPOS>BOND
   1    1    2 2
   2    1    9 1
   3    1    5 1
   4    2    3 1
   5    2   11 1
   6    3    4 2
   7    3    7 1
   8    4    5 1
   9    4    6 1
  10    6   19 1
  11    6   20 1
  12    7    8 1
  13    7   12 2
  14    8   13 ar
  15    8   17 ar
  16    9   10 1
  17    9   21 1
  18    9   22 1
  19   10   11 1
  20   10   23 1
  21   10   24 1
  22   11   25 1
  23   11   26 1
  24   13   14 ar
  25   13   27 1
  26   14   15 ar
  27   14   18 1
  28   15   16 ar
  29   15   28 1
  30   16   17 ar
  31   16   29 1
  32   17   30 1

#	End of record

