#	Name: ASD01410779
#	Creating user name:	WinNT
#	Creation time:	15. 06. 2019 19:18

#	Modifying user name:	WinNT
#	Modification time:	15. 06. 2019 19:18

#	Program:	/corina/corina34_cracker 3.40 0067  02.08.2006

@<TRIPOS>MOLECULE
ASD01410779
  48   50    0    0    0
SMALL
NO_CHARGES


@<TRIPOS>ATOM
   1 N1            -0.0081     1.4729    -1.1257 N.ar    
   2 C2            -0.0702     0.1878    -1.4310 C.ar    
   3 C3             1.0770    -0.5395    -1.7766 C.ar    
   4 C4             2.2964     0.0847    -1.8027 C.ar    
   5 C5             2.3515     1.4597    -1.4749 C.ar    
   6 C6             3.5672     2.1580    -1.4827 C.ar    
   7 C7             3.5919     3.4814    -1.1636 C.ar    
   8 C8             2.4169     4.1581    -0.8258 C.ar    
   9 C9             1.2063     3.5012    -0.8081 C.ar    
  10 C10            1.1532     2.1350    -1.1340 C.ar    
  11 O11            3.4208    -0.5976    -2.1336 O.3     
  12 S12           -1.6505    -2.1973    -1.7821 S.3     
  13 C13           -1.3793    -0.4975    -1.4066 C.2     
  14 N14           -2.5178     0.0582    -1.1038 N.2     
  15 C15           -3.5823    -0.7065    -1.1343 C.2     
  16 C16           -3.3734    -1.9842    -1.4771 C.2     
  17 C17           -4.9553    -0.1807    -0.8037 C.3     
  18 C18           -5.6721     0.2207    -2.0945 C.3     
  19 C19           -5.7603    -1.2691    -0.0907 C.3     
  20 O20            2.4692     5.4788    -0.5109 O.3     
  21 C21            3.7537     6.1040    -0.5468 C.3     
  22 C22            3.6137     7.5792    -0.1659 C.3     
  23 O23            2.7414     8.2296    -1.0922 O.3     
  24 C24            2.8006     9.6565    -1.0427 C.3     
  25 O25            3.0708     7.6814     1.1520 O.3     
  26 C26            3.3320     8.9317     1.7928 C.3     
  27 Cl27          -0.2447     4.3552    -0.3852 Cl      
  28 H28            1.0001    -1.5886    -2.0213 H       
  29 H29            4.4828     1.6469    -1.7412 H       
  30 H30            4.5311     4.0145    -1.1712 H       
  31 H31            3.6226    -0.5882    -3.0792 H       
  32 H32           -4.1298    -2.7513    -1.5535 H       
  33 H33           -4.8644     0.6891    -0.1531 H       
  34 H34           -5.0987     0.9961    -2.6025 H       
  35 H35           -5.7631    -0.6491    -2.7451 H       
  36 H36           -6.6652     0.6010    -1.8554 H       
  37 H37           -5.2496    -1.5550     0.8289 H       
  38 H38           -6.7534    -0.8887     0.1484 H       
  39 H39           -5.8512    -2.1388    -0.7413 H       
  40 H40            4.4191     5.6079     0.1598 H       
  41 H41            4.1678     6.0260    -1.5520 H       
  42 H42            4.5935     8.0560    -0.1933 H       
  43 H43            2.1915    10.0169    -0.2138 H       
  44 H44            3.8338     9.9725    -0.8987 H       
  45 H45            2.4217    10.0685    -1.9780 H       
  46 H46            3.0282     8.8747     2.8381 H       
  47 H47            4.3977     9.1536     1.7357 H       
  48 H48            2.7694     9.7205     1.2934 H       
@<TRIPOS>BOND
   1    1    2 ar
   2    1   10 ar
   3    2    3 ar
   4    2   13 1
   5    3    4 ar
   6    3   28 1
   7    4    5 ar
   8    4   11 1
   9    5    6 ar
  10    5   10 ar
  11    6    7 ar
  12    6   29 1
  13    7    8 ar
  14    7   30 1
  15    8    9 ar
  16    8   20 1
  17    9   10 ar
  18    9   27 1
  19   11   31 1
  20   12   13 1
  21   12   16 1
  22   13   14 2
  23   14   15 1
  24   15   16 2
  25   15   17 1
  26   16   32 1
  27   17   18 1
  28   17   19 1
  29   17   33 1
  30   18   34 1
  31   18   35 1
  32   18   36 1
  33   19   37 1
  34   19   38 1
  35   19   39 1
  36   20   21 1
  37   21   22 1
  38   21   40 1
  39   21   41 1
  40   22   23 1
  41   22   25 1
  42   22   42 1
  43   23   24 1
  44   24   43 1
  45   24   44 1
  46   24   45 1
  47   25   26 1
  48   26   46 1
  49   26   47 1
  50   26   48 1

#	End of record

