#	Name: ASD00170697
#	Creating user name:	WinNT
#	Creation time:	15. 06. 2019 18:32

#	Modifying user name:	WinNT
#	Modification time:	15. 06. 2019 18:32

#	Program:	/corina/corina34_cracker 3.40 0067  02.08.2006

@<TRIPOS>MOLECULE
ASD00170697
  48   50    0    0    0
SMALL
NO_CHARGES


@<TRIPOS>ATOM
   1 Cl1            3.0637     6.2807    -5.3615 Cl      
   2 C2             2.1741     6.2506    -3.8711 C.ar    
   3 C3             2.6681     5.5441    -2.7869 C.ar    
   4 C4             1.9659     5.5166    -1.6005 C.ar    
   5 C5             0.7547     6.2027    -1.4933 C.ar    
   6 C6             0.2618     6.9131    -2.5896 C.ar    
   7 C7             0.9758     6.9379    -3.7690 C.ar    
   8 C8            -0.0033     6.1767    -0.2241 C.2     
   9 O9             0.3772     5.4785     0.6981 O.2     
  10 C10           -1.2110     6.9902    -0.0761 C.2     
  11 C11           -2.4859     6.5043    -0.2691 C.2     
  12 N12           -2.7833     5.2055    -0.6213 N.pl3   
  13 S13           -3.6450     7.7268    -0.0125 S.3     
  14 C14           -2.4179     8.9234     0.3625 C.2     
  15 C15           -1.1938     8.3855     0.2935 C.2     
  16 C16            0.0711     9.1591     0.5628 C.3     
  17 C17            0.4104     9.0790     2.0526 C.3     
  18 C18            0.5703     7.6133     2.4611 C.3     
  19 C19            1.7177     9.8281     2.3188 C.3     
  20 C20           -0.7172     9.7155     2.8674 C.3     
  21 C21           -2.6977    10.3313     0.7135 C.ar    
  22 C22           -2.0404    11.3648     0.0435 C.ar    
  23 C23           -2.3067    12.6770     0.3757 C.ar    
  24 C24           -3.2227    12.9698     1.3705 C.ar    
  25 C25           -3.8777    11.9503     2.0384 C.ar    
  26 C26           -3.6248    10.6340     1.7125 C.ar    
  27 H27            3.6050     5.0135    -2.8711 H       
  28 H28            2.3519     4.9651    -0.7559 H       
  29 H29           -0.6746     7.4457    -2.5126 H       
  30 H30            0.5956     7.4871    -4.6177 H       
  31 H31           -2.0682     4.5816    -0.8222 H       
  32 H32           -3.7077     4.9152    -0.6682 H       
  33 H33            0.8883     8.7333    -0.0194 H       
  34 H34           -0.0730    10.2014     0.2785 H       
  35 H35            1.3737     7.1598     1.8806 H       
  36 H36            0.8120     7.5562     3.5225 H       
  37 H37           -0.3610     7.0796     2.2714 H       
  38 H38            1.6038    10.8724     2.0278 H       
  39 H39            1.9594     9.7711     3.3802 H       
  40 H40            2.5210     9.3746     1.7383 H       
  41 H41           -1.6218     9.1159     2.7662 H       
  42 H42           -0.4265     9.7603     3.9170 H       
  43 H43           -0.9068    10.7240     2.4996 H       
  44 H44           -1.3249    11.1375    -0.7329 H       
  45 H45           -1.7986    13.4774    -0.1415 H       
  46 H46           -3.4272    13.9988     1.6269 H       
  47 H47           -4.5913    12.1858     2.8141 H       
  48 H48           -4.1369     9.8391     2.2344 H       
@<TRIPOS>BOND
   1    1    2 1
   2    2    3 ar
   3    2    7 ar
   4    3    4 ar
   5    3   27 1
   6    4    5 ar
   7    4   28 1
   8    5    6 ar
   9    5    8 1
  10    6    7 ar
  11    6   29 1
  12    7   30 1
  13    8    9 2
  14    8   10 1
  15   10   11 2
  16   10   15 1
  17   11   12 1
  18   11   13 1
  19   12   31 1
  20   12   32 1
  21   13   14 1
  22   14   15 2
  23   14   21 1
  24   15   16 1
  25   16   17 1
  26   16   33 1
  27   16   34 1
  28   17   18 1
  29   17   19 1
  30   17   20 1
  31   18   35 1
  32   18   36 1
  33   18   37 1
  34   19   38 1
  35   19   39 1
  36   19   40 1
  37   20   41 1
  38   20   42 1
  39   20   43 1
  40   21   22 ar
  41   21   26 ar
  42   22   23 ar
  43   22   44 1
  44   23   24 ar
  45   23   45 1
  46   24   25 ar
  47   24   46 1
  48   25   26 ar
  49   25   47 1
  50   26   48 1

#	End of record

