#	Name: ASD00431169
#	Creating user name:	WinNT
#	Creation time:	15. 06. 2019 18:35

#	Modifying user name:	WinNT
#	Modification time:	15. 06. 2019 18:35

#	Program:	/corina/corina34_cracker 3.40 0067  02.08.2006

@<TRIPOS>MOLECULE
ASD00431169
  49   51    0    0    0
SMALL
NO_CHARGES


@<TRIPOS>ATOM
   1 N1             0.0516     1.1797     0.2993 N.am    
   2 C2             0.0837    -0.1675     0.3216 C.2     
   3 O3             1.1506    -0.7505     0.3115 O.2     
   4 N4            -1.0670    -0.8686     0.3551 N.am    
   5 C5            -1.0321    -2.3329     0.3792 C.3     
   6 C6             1.3023     1.9417     0.2630 C.3     
   7 C7             1.7762     2.0752    -1.1857 C.3     
   8 O8             0.0406     4.1221     0.5842 O.3     
   9 N9             0.1513     5.1536     1.2125 N.2     
  10 C10            1.2454     5.1247     1.9341 C.2     
  11 N11            1.8457     3.9338     1.6991 N.2     
  12 C12            1.0723     3.3127     0.8447 C.2     
  13 S13            3.2054     6.1401     3.7975 S.3     
  14 C14            2.8705     7.7006     4.4099 C.2     
  15 N15            1.7628     8.1532     3.9079 N.2     
  16 C16            1.1262     7.3744     3.0616 C.2     
  17 C17            1.7318     6.1900     2.8331 C.2     
  18 O18            3.6499     8.3689     5.2929 O.3     
  19 C19            3.3053     9.6455     5.6097 C.ar    
  20 C20            2.1253     9.8958     6.2948 C.ar    
  21 C21            1.7754    11.1926     6.6165 C.ar    
  22 C22            2.6036    12.2447     6.2542 C.ar    
  23 C23            3.7833    11.9945     5.5687 C.ar    
  24 C24            4.1366    10.6972     5.2528 C.ar    
  25 O25            2.2588    13.5214     6.5705 O.3     
  26 C26            0.9692    13.7196     7.1533 C.3     
  27 C27            1.0918    13.7105     8.6783 C.3     
  28 C28            0.4039    15.0655     6.6951 C.3     
  29 H29           -0.7997     1.6446     0.3034 H       
  30 H30           -1.9182    -0.4035     0.3631 H       
  31 H31           -0.5265    -2.6991    -0.5143 H       
  32 H32           -0.4931    -2.6690     1.2651 H       
  33 H33           -2.0506    -2.7203     0.4049 H       
  34 H34            2.0616     1.4218     0.8472 H       
  35 H35            1.0168     2.5951    -1.7699 H       
  36 H36            2.7067     2.6421    -1.2127 H       
  37 H37            1.9425     1.0835    -1.6064 H       
  38 H38            0.1970     7.6579     2.5896 H       
  39 H39            1.4801     9.0768     6.5763 H       
  40 H40            0.8568    11.3875     7.1499 H       
  41 H41            4.4277    12.8138     5.2860 H       
  42 H42            5.0574    10.5020     4.7233 H       
  43 H43            0.3008    12.9185     6.8378 H       
  44 H44            1.7602    14.5117     8.9939 H       
  45 H45            0.1082    13.8618     9.1229 H       
  46 H46            1.4945    12.7517     9.0048 H       
  47 H47            0.3165    15.0720     5.6086 H       
  48 H48           -0.5798    15.2168     7.1396 H       
  49 H49            1.0723    15.8667     7.0107 H       
@<TRIPOS>BOND
   1    1    2 am
   2    1    6 1
   3    1   29 1
   4    2    3 2
   5    2    4 am
   6    4    5 1
   7    4   30 1
   8    5   31 1
   9    5   32 1
  10    5   33 1
  11    6    7 1
  12    6   12 1
  13    6   34 1
  14    7   35 1
  15    7   36 1
  16    7   37 1
  17    8    9 1
  18    8   12 1
  19    9   10 2
  20   10   11 1
  21   10   17 1
  22   11   12 2
  23   13   14 1
  24   13   17 1
  25   14   15 2
  26   14   18 1
  27   15   16 1
  28   16   17 2
  29   16   38 1
  30   18   19 1
  31   19   20 ar
  32   19   24 ar
  33   20   21 ar
  34   20   39 1
  35   21   22 ar
  36   21   40 1
  37   22   23 ar
  38   22   25 1
  39   23   24 ar
  40   23   41 1
  41   24   42 1
  42   25   26 1
  43   26   27 1
  44   26   28 1
  45   26   43 1
  46   27   44 1
  47   27   45 1
  48   27   46 1
  49   28   47 1
  50   28   48 1
  51   28   49 1

#	End of record

