#	Name: ASD01882812
#	Creating user name:	WinNT
#	Creation time:	15. 06. 2019 19:45

#	Modifying user name:	WinNT
#	Modification time:	15. 06. 2019 19:45

#	Program:	/corina/corina34_cracker 3.40 0067  02.08.2006

@<TRIPOS>MOLECULE
ASD01882812
  38   41    0    0    0
SMALL
NO_CHARGES


@<TRIPOS>ATOM
   1 O1            -0.0173     1.4248     0.0099 O.3     
   2 C2             0.0021    -0.0041     0.0020 C.3     
   3 C3             1.2831     0.8325    -0.0057 C.3     
   4 C4            -0.3680    -0.7292     1.2974 C.3     
   5 O5            -1.5561    -1.4961     1.0913 O.3     
   6 C6            -2.0238    -2.2062     2.1515 C.ar    
   7 C7            -3.1727    -2.9728     2.0218 C.ar    
   8 C8            -3.6462    -3.6936     3.1010 C.ar    
   9 C9            -2.9759    -3.6515     4.3096 C.ar    
  10 C10           -1.8308    -2.8879     4.4415 C.ar    
  11 C11           -1.3499    -2.1701     3.3636 C.ar    
  12 C12           -3.4945    -4.4389     5.4852 C.3     
  13 C13           -2.4354    -5.4578     5.9566 C.3     
  14 C14           -1.6794    -4.6692     7.0470 C.3     
  15 C15           -2.6776    -3.6576     7.5681 C.ar    
  16 C16           -2.6736    -2.9118     8.7351 C.ar    
  17 C17           -3.7077    -2.0371     9.0045 C.ar    
  18 C18           -4.7509    -1.9047     8.1069 C.ar    
  19 C19           -4.7567    -2.6475     6.9427 C.ar    
  20 C20           -3.7205    -3.5252     6.6707 C.ar    
  21 H21           -0.2792    -0.5108    -0.9211 H       
  22 H22            1.8523     0.8812    -0.9340 H       
  23 H23            1.8699     0.8713     0.9120 H       
  24 H24            0.4467    -1.3924     1.5881 H       
  25 H25           -0.5402     0.0024     2.0869 H       
  26 H26           -3.6969    -3.0057     1.0781 H       
  27 H27           -4.5408    -4.2903     3.0007 H       
  28 H28           -1.3094    -2.8561     5.3868 H       
  29 H29           -0.4527    -1.5777     3.4657 H       
  30 H30           -4.4193    -4.9506     5.2186 H       
  31 H31           -2.9105    -6.3436     6.3782 H       
  32 H32           -1.7664    -5.7274     5.1394 H       
  33 H33           -1.3654    -5.3381     7.8484 H       
  34 H34           -0.8161    -4.1617     6.6168 H       
  35 H35           -1.8592    -3.0150     9.4370 H       
  36 H36           -3.7018    -1.4573     9.9157 H       
  37 H37           -5.5606    -1.2214     8.3162 H       
  38 H38           -5.5719    -2.5435     6.2419 H       
@<TRIPOS>BOND
   1    1    2 1
   2    1    3 1
   3    2    3 1
   4    2    4 1
   5    2   21 1
   6    3   22 1
   7    3   23 1
   8    4    5 1
   9    4   24 1
  10    4   25 1
  11    5    6 1
  12    6    7 ar
  13    6   11 ar
  14    7    8 ar
  15    7   26 1
  16    8    9 ar
  17    8   27 1
  18    9   10 ar
  19    9   12 1
  20   10   11 ar
  21   10   28 1
  22   11   29 1
  23   12   13 1
  24   12   20 1
  25   12   30 1
  26   13   14 1
  27   13   31 1
  28   13   32 1
  29   14   15 1
  30   14   33 1
  31   14   34 1
  32   15   16 ar
  33   15   20 ar
  34   16   17 ar
  35   16   35 1
  36   17   18 ar
  37   17   36 1
  38   18   19 ar
  39   18   37 1
  40   19   20 ar
  41   19   38 1

#	End of record

