#	Name: ASD02398006
#	Creating user name:	WinNT
#	Creation time:	15. 06. 2019 20:20

#	Modifying user name:	WinNT
#	Modification time:	15. 06. 2019 20:20

#	Program:	/corina/corina34_cracker 3.40 0067  02.08.2006

@<TRIPOS>MOLECULE
ASD02398006
  47   49    0    0    0
SMALL
NO_CHARGES


@<TRIPOS>ATOM
   1 C1            -0.0169     1.3942     0.0097 C.ar    
   2 C2             0.0021    -0.0041     0.0020 C.ar    
   3 C3            -1.1981    -0.7105     0.0096 C.ar    
   4 C4            -2.3985    -0.0288     0.0247 C.ar    
   5 C5            -2.4141     1.3545     0.0318 C.ar    
   6 C6            -1.2286     2.0654     0.0307 C.ar    
   7 C7            -3.6965    -0.7944     0.0329 C.3     
   8 C8            -4.1157    -1.0572     1.4564 C.2     
   9 O9            -3.4306    -0.6633     2.3704 O.2     
  10 O10           -5.2500    -1.7289     1.7089 O.3     
  11 C11            1.2946    -0.7315    -0.0147 C.ar    
  12 O12            1.1487     2.0917     0.0023 O.3     
  13 C13            1.0517     3.5174     0.0109 C.3     
  14 C14            2.1649    -0.6364     1.0700 C.ar    
  15 C15            1.6408    -1.5171    -1.1123 C.ar    
  16 C16            2.8450    -2.1918    -1.1224 C.ar    
  17 C17            3.7072    -2.0892    -0.0459 C.ar    
  18 C18            3.3660    -1.3153     1.0490 C.ar    
  19 C19            1.7949     0.2066     2.2631 C.3     
  20 N20            0.8687    -0.5386     3.1192 N.am    
  21 C21            1.2196    -1.3475     4.1282 C.2     
  22 O22            0.1814    -1.9106     4.7564 O.3     
  23 C23           -1.0604    -1.4640     4.1389 C.3     
  24 C24           -0.5984    -0.5159     3.0154 C.3     
  25 O25            2.3752    -1.5513     4.4435 O.2     
  26 C26            5.0204    -2.8283    -0.0629 C.3     
  27 F27            5.1388    -3.5414    -1.2607 F       
  28 F28            6.0725    -1.9120     0.0403 F       
  29 F29            5.0690    -3.7176     1.0160 F       
  30 H30           -1.1897    -1.7904     0.0034 H       
  31 H31           -3.3568     1.8813     0.0429 H       
  32 H32           -1.2472     3.1452     0.0363 H       
  33 H33           -4.4664    -0.2096    -0.4705 H       
  34 H34           -3.5623    -1.7428    -0.4873 H       
  35 H35           -5.4774    -1.8732     2.6376 H       
  36 H36            0.5228     3.8402     0.9077 H       
  37 H37            2.0522     3.9498     0.0037 H       
  38 H38            0.5059     3.8497    -0.8721 H       
  39 H39            0.9681    -1.5981    -1.9533 H       
  40 H40            3.1142    -2.8012    -1.9724 H       
  41 H41            4.0431    -1.2388     1.8869 H       
  42 H42            2.6945     0.4516     2.8278 H       
  43 H43            1.3170     1.1258     1.9243 H       
  44 H44           -1.6085    -2.3113     3.7269 H       
  45 H45           -1.6741    -0.9253     4.8609 H       
  46 H46           -0.9834     0.4903     3.1811 H       
  47 H47           -0.9144    -0.8925     2.0426 H       
@<TRIPOS>BOND
   1    1    2 ar
   2    1   12 1
   3    1    6 ar
   4    2    3 ar
   5    2   11 1
   6    3    4 ar
   7    3   30 1
   8    4    5 ar
   9    4    7 1
  10    5    6 ar
  11    5   31 1
  12    6   32 1
  13    7    8 1
  14    7   33 1
  15    7   34 1
  16    8    9 2
  17    8   10 1
  18   10   35 1
  19   11   14 ar
  20   11   15 ar
  21   12   13 1
  22   13   36 1
  23   13   37 1
  24   13   38 1
  25   14   19 1
  26   14   18 ar
  27   15   16 ar
  28   15   39 1
  29   16   17 ar
  30   16   40 1
  31   17   18 ar
  32   17   26 1
  33   18   41 1
  34   19   20 1
  35   19   42 1
  36   19   43 1
  37   20   21 am
  38   20   24 1
  39   21   22 1
  40   21   25 2
  41   22   23 1
  42   23   24 1
  43   23   44 1
  44   23   45 1
  45   24   46 1
  46   24   47 1
  47   26   27 1
  48   26   28 1
  49   26   29 1

#	End of record

