#	Name: ASD00431474
#	Creating user name:	WinNT
#	Creation time:	15. 06. 2019 18:35

#	Modifying user name:	WinNT
#	Modification time:	15. 06. 2019 18:35

#	Program:	/corina/corina34_cracker 3.40 0067  02.08.2006

@<TRIPOS>MOLECULE
ASD00431474
  34   36    0    0    0
SMALL
NO_CHARGES


@<TRIPOS>ATOM
   1 O1            -3.6029     5.1021    -3.2667 O.3     
   2 C2            -4.5286     4.7474    -4.1725 C.2     
   3 S3            -4.2248     5.7528    -5.5375 S.3     
   4 N4            -2.9115     6.5658    -4.8318 N.2     
   5 C5            -2.7640     6.0638    -3.6431 C.2     
   6 O6            -5.3937     3.8994    -4.0547 O.2     
   7 S7            -1.3874     5.9582    -1.1111 S.3     
   8 C8            -0.0859     7.0558    -0.9585 C.2     
   9 N9             0.0447     7.7546    -2.0441 N.2     
  10 C10           -0.8013     7.5100    -3.0200 C.2     
  11 C11           -1.7047     6.5430    -2.7425 C.2     
  12 O12            0.6973     7.1789     0.1394 O.3     
  13 C13            1.7593     8.0254     0.0742 C.ar    
  14 C14            1.5512     9.3900    -0.0646 C.ar    
  15 C15            2.6301    10.2498    -0.1309 C.ar    
  16 C16            3.9216     9.7490    -0.0586 C.ar    
  17 C17            4.1298     8.3846     0.0802 C.ar    
  18 C18            3.0509     7.5252     0.1522 C.ar    
  19 O19            4.9837    10.5955    -0.1243 O.3     
  20 C20            4.7027    11.9683    -0.4044 C.3     
  21 C21            4.5720    12.7406     0.9099 C.3     
  22 C22            5.8423    12.5631    -1.2342 C.3     
  23 H23           -0.7770     8.0365    -3.9626 H       
  24 H24            0.5457     9.7799    -0.1213 H       
  25 H25            2.4681    11.3120    -0.2393 H       
  26 H26            5.1354     7.9948     0.1365 H       
  27 H27            3.2129     6.4634     0.2651 H       
  28 H28            3.7697    12.0416    -0.9632 H       
  29 H29            4.3577    13.7877     0.6963 H       
  30 H30            3.7602    12.3168     1.5011 H       
  31 H31            5.5050    12.6673     1.4687 H       
  32 H32            5.9354    12.0129    -2.1705 H       
  33 H33            5.6280    13.6102    -1.4478 H       
  34 H34            6.7753    12.4898    -0.6754 H       
@<TRIPOS>BOND
   1    1    2 1
   2    1    5 1
   3    2    3 1
   4    2    6 2
   5    3    4 1
   6    4    5 2
   7    5   11 1
   8    7    8 1
   9    7   11 1
  10    8    9 2
  11    8   12 1
  12    9   10 1
  13   10   11 2
  14   10   23 1
  15   12   13 1
  16   13   14 ar
  17   13   18 ar
  18   14   15 ar
  19   14   24 1
  20   15   16 ar
  21   15   25 1
  22   16   17 ar
  23   16   19 1
  24   17   18 ar
  25   17   26 1
  26   18   27 1
  27   19   20 1
  28   20   21 1
  29   20   22 1
  30   20   28 1
  31   21   29 1
  32   21   30 1
  33   21   31 1
  34   22   32 1
  35   22   33 1
  36   22   34 1

#	End of record

