#	Name: ASD03730481
#	Creating user name:	WinNT
#	Creation time:	15. 06. 2019 20:44

#	Modifying user name:	WinNT
#	Modification time:	15. 06. 2019 20:44

#	Program:	/corina/corina34_cracker 3.40 0067  02.08.2006

@<TRIPOS>MOLECULE
ASD03730481
  55   60    0    0    0
SMALL
NO_CHARGES


@<TRIPOS>ATOM
   1 C1            -0.5889     1.3907    -0.3347 C.2     
   2 C2            -0.6089    -0.1080    -0.1773 C.3     
   3 O3             0.1111     1.9020    -1.1829 O.2     
   4 N4            -1.3531     2.1623     0.4635 N.am    
   5 O5             5.1634     2.2658    -3.7461 O.3     
   6 C6             6.2784     2.0827    -4.6385 C.3     
   7 O7             6.7754     0.7742    -4.3013 O.3     
   8 C8             5.7008     0.0905    -3.8087 C.ar    
   9 C9             4.7103     1.0083    -3.4666 C.ar    
  10 C10            5.4836    -1.2630    -3.6225 C.ar    
  11 C11            4.2799    -1.7176    -3.0925 C.ar    
  12 C12            3.3013    -0.7906    -2.7468 C.ar    
  13 C13            3.5124     0.5591    -2.9369 C.ar    
  14 O14            3.8615    -2.9924    -2.8471 O.3     
  15 C15            2.1468    -1.5755    -2.1838 C.3     
  16 C16            2.7558    -2.9601    -1.9242 C.3     
  17 N17            0.2946    -0.7141    -1.1584 N.am    
  18 C18            1.5998    -0.9601    -0.9282 C.2     
  19 C19            0.9864    -1.6434    -3.1318 C.ar    
  20 C20            0.8379    -2.0987    -4.4228 C.ar    
  21 C21           -0.3952    -2.0256    -5.0460 C.ar    
  22 C22           -1.4778    -1.4935    -4.3693 C.ar    
  23 C23           -1.3339    -1.0353    -3.0764 C.ar    
  24 C24           -0.0965    -1.1053    -2.4412 C.ar    
  25 O25            2.2121    -0.7298     0.0931 O.2     
  26 C26           -1.2942     3.5560     0.3538 C.ar    
  27 C27           -2.4165     4.2708    -0.0438 C.ar    
  28 C28           -2.3552     5.6463    -0.1512 C.ar    
  29 C29           -1.1778     6.3119     0.1367 C.ar    
  30 C30           -0.0583     5.6031     0.5324 C.ar    
  31 C31           -0.1149     4.2279     0.6477 C.ar    
  32 C32            1.1036     3.4568     1.0855 C.3     
  33 C33           -3.6999     3.5461    -0.3583 C.3     
  34 H34           -0.2828    -0.3720     0.8287 H       
  35 H35           -1.6217    -0.4769    -0.3394 H       
  36 H36           -1.9439     1.7515     1.1139 H       
  37 H37            5.9467     2.1106    -5.6765 H       
  38 H38            7.0412     2.8402    -4.4587 H       
  39 H39            6.2535    -1.9715    -3.8904 H       
  40 H40            2.7414     1.2674    -2.6716 H       
  41 H41            2.0378    -3.7478    -2.1526 H       
  42 H42            3.1074    -3.0417    -0.8957 H       
  43 H43            1.6847    -2.5136    -4.9494 H       
  44 H44           -0.5122    -2.3834    -6.0582 H       
  45 H45           -2.4403    -1.4363    -4.8558 H       
  46 H46           -2.1838    -0.6206    -2.5548 H       
  47 H47           -3.2276     6.2027    -0.4606 H       
  48 H48           -1.1323     7.3876     0.0520 H       
  49 H49            0.8599     6.1258     0.7563 H       
  50 H50            1.7480     3.2767     0.2251 H       
  51 H51            1.6486     4.0327     1.8334 H       
  52 H52            0.7954     2.5034     1.5146 H       
  53 H53           -4.3002     3.4607     0.5475 H       
  54 H54           -4.2565     4.1033    -1.1118 H       
  55 H55           -3.4713     2.5503    -0.7379 H       
@<TRIPOS>BOND
   1    1    2 1
   2    1    3 2
   3    1    4 am
   4    2   17 1
   5    2   34 1
   6    2   35 1
   7    4   26 1
   8    4   36 1
   9    5    6 1
  10    5    9 1
  11    6    7 1
  12    6   37 1
  13    6   38 1
  14    7    8 1
  15    8    9 ar
  16    8   10 ar
  17    9   13 ar
  18   10   11 ar
  19   10   39 1
  20   11   12 ar
  21   11   14 1
  22   12   13 ar
  23   12   15 1
  24   13   40 1
  25   14   16 1
  26   15   16 1
  27   15   18 1
  28   15   19 1
  29   16   41 1
  30   16   42 1
  31   17   18 am
  32   17   24 1
  33   18   25 2
  34   19   20 ar
  35   19   24 ar
  36   20   21 ar
  37   20   43 1
  38   21   22 ar
  39   21   44 1
  40   22   23 ar
  41   22   45 1
  42   23   24 ar
  43   23   46 1
  44   26   27 ar
  45   26   31 ar
  46   27   28 ar
  47   27   33 1
  48   28   29 ar
  49   28   47 1
  50   29   30 ar
  51   29   48 1
  52   30   31 ar
  53   30   49 1
  54   31   32 1
  55   32   50 1
  56   32   51 1
  57   32   52 1
  58   33   53 1
  59   33   54 1
  60   33   55 1

#	End of record

