#	Name: ASD03092318
#	Creating user name:	WinNT
#	Creation time:	15. 06. 2019 20:32

#	Modifying user name:	WinNT
#	Modification time:	15. 06. 2019 20:32

#	Program:	/corina/corina34_cracker 3.40 0067  02.08.2006

@<TRIPOS>MOLECULE
ASD03092318
  62   65    0    0    0
SMALL
NO_CHARGES


@<TRIPOS>ATOM
   1 C1            -0.1266     1.4448     0.0222 C.2     
   2 C2            -0.1632    -0.0320     0.0291 C.ar    
   3 C3             1.0119    -0.7630    -0.1595 C.ar    
   4 C4             0.9722    -2.1406    -0.1518 C.ar    
   5 C5            -0.2317    -2.8009     0.0424 C.ar    
   6 C6            -1.4010    -2.0802     0.2301 C.ar    
   7 C7            -1.3717    -0.7019     0.2299 C.ar    
   8 O8             0.9390     2.0261    -0.0455 O.2     
   9 N9            -1.2748     2.1476     0.0855 N.am    
  10 C10            2.3208    -0.0468    -0.3716 C.3     
  11 F11           -0.2652    -4.1515     0.0482 F       
  12 C12           -1.2385     3.6122     0.0787 C.3     
  13 S13           -4.9309     5.0754    -0.3941 S.3     
  14 C14           -4.4921     4.7841     1.2322 C.2     
  15 N15           -3.2834     4.3120     1.2952 N.2     
  16 C16           -2.6441     4.1499     0.1572 C.2     
  17 C17           -3.3536     4.5058    -0.9342 C.2     
  18 C18           -2.5940     5.4062    -4.5002 C.ar    
  19 C19           -3.0421     5.5198    -3.2020 C.ar    
  20 C20           -2.8901     4.4307    -2.3334 C.ar    
  21 C21           -2.2853     3.2685    -2.8305 C.ar    
  22 C22           -1.8672     3.2425    -4.1433 C.ar    
  23 N23           -2.0295     4.2920    -4.9277 N.ar    
  24 C24           -1.2152     1.9992    -4.6911 C.3     
  25 C25           -2.7568     6.5674    -5.4468 C.3     
  26 N26           -5.3072     5.0181     2.3247 N.3     
  27 C27           -6.6104     5.5533     1.9047 C.3     
  28 C28           -7.4566     5.8531     3.1449 C.3     
  29 O29           -7.5866     4.6624     3.9263 O.3     
  30 C30           -6.3365     4.1143     4.3529 C.3     
  31 C31           -5.4790     3.7969     3.1250 C.3     
  32 C32           -6.5859     2.8308     5.1475 C.3     
  33 C33           -8.8431     6.3348     2.7131 C.3     
  34 H34            1.8802    -2.7068    -0.2975 H       
  35 H35           -2.3359    -2.5994     0.3809 H       
  36 H36           -2.2824    -0.1414     0.3806 H       
  37 H37           -2.1252     1.6838     0.1355 H       
  38 H38            2.7405     0.2365     0.5936 H       
  39 H39            3.0160    -0.7065    -0.8907 H       
  40 H40            2.1524     0.8478    -0.9712 H       
  41 H41           -0.6660     3.9654     0.9363 H       
  42 H42           -0.7674     3.9597    -0.8407 H       
  43 H43           -3.5027     6.4345    -2.8591 H       
  44 H44           -2.1486     2.4065    -2.1944 H       
  45 H45           -1.9784     1.3428    -5.1092 H       
  46 H46           -0.5056     2.2746    -5.4713 H       
  47 H47           -0.6900     1.4808    -3.8889 H       
  48 H48           -1.8773     7.2088    -5.3896 H       
  49 H49           -2.8683     6.1936    -6.4646 H       
  50 H50           -3.6424     7.1397    -5.1709 H       
  51 H51           -6.4608     6.4708     1.3357 H       
  52 H52           -7.1226     4.8185     1.2836 H       
  53 H53           -6.9703     6.6270     3.7389 H       
  54 H54           -5.8176     4.8376     4.9820 H       
  55 H55           -5.9731     3.0339     2.5234 H       
  56 H56           -4.5034     3.4323     3.4467 H       
  57 H57           -7.1030     2.1077     4.5168 H       
  58 H58           -5.6327     2.4136     5.4723 H       
  59 H59           -7.1996     3.0568     6.0195 H       
  60 H60           -9.3290     5.5594     2.1209 H       
  61 H61           -9.4450     6.5481     3.5965 H       
  62 H62           -8.7430     7.2402     2.1144 H       
@<TRIPOS>BOND
   1    1    2 1
   2    1    8 2
   3    1    9 am
   4    2    3 ar
   5    2    7 ar
   6    3    4 ar
   7    3   10 1
   8    4    5 ar
   9    4   34 1
  10    5    6 ar
  11    5   11 1
  12    6    7 ar
  13    6   35 1
  14    7   36 1
  15    9   12 1
  16    9   37 1
  17   10   38 1
  18   10   39 1
  19   10   40 1
  20   12   16 1
  21   12   41 1
  22   12   42 1
  23   13   14 1
  24   13   17 1
  25   14   15 2
  26   14   26 1
  27   15   16 1
  28   16   17 2
  29   17   20 1
  30   18   19 ar
  31   18   23 ar
  32   18   25 1
  33   19   20 ar
  34   19   43 1
  35   20   21 ar
  36   21   22 ar
  37   21   44 1
  38   22   23 ar
  39   22   24 1
  40   24   45 1
  41   24   46 1
  42   24   47 1
  43   25   48 1
  44   25   49 1
  45   25   50 1
  46   26   27 1
  47   26   31 1
  48   27   28 1
  49   27   51 1
  50   27   52 1
  51   28   29 1
  52   28   33 1
  53   28   53 1
  54   29   30 1
  55   30   31 1
  56   30   32 1
  57   30   54 1
  58   31   55 1
  59   31   56 1
  60   32   57 1
  61   32   58 1
  62   32   59 1
  63   33   60 1
  64   33   61 1
  65   33   62 1

#	End of record

