#	Name: ASD01910575
#	Creating user name:	WinNT
#	Creation time:	15. 06. 2019 19:56

#	Modifying user name:	WinNT
#	Modification time:	15. 06. 2019 19:56

#	Program:	/corina/corina34_cracker 3.40 0067  02.08.2006

@<TRIPOS>MOLECULE
ASD01910575
  42   45    0    0    0
SMALL
NO_CHARGES


@<TRIPOS>ATOM
   1 O1             0.1195     0.7032    -0.2243 O.3     
   2 C2             0.2624    -0.6324    -0.1918 C.2     
   3 N3             1.5645    -0.8719    -0.1460 N.2     
   4 C4             2.1517     0.3339    -0.1529 C.2     
   5 N5             1.2112     1.2311    -0.2012 N.2     
   6 C6            -0.8148    -1.6317    -0.2039 C.2     
   7 C7            -2.1506    -1.3645    -0.2511 C.2     
   8 C8            -2.8230    -2.6092    -0.2454 C.2     
   9 C9            -1.8552    -3.5923    -0.1943 C.2     
  10 N10           -0.6472    -2.9974    -0.1756 N.pl3   
  11 C11            3.9701     1.4286     1.1331 C.3     
  12 C12            3.6342     0.6011    -0.1115 C.3     
  13 C13            4.0482     1.3786    -1.3631 C.3     
  14 C14            5.5589     1.6219    -1.3380 C.3     
  15 C15            5.9166     2.4610    -0.1073 C.3     
  16 N16            5.3935     1.7902     1.0907 N.am    
  17 C17            6.2042     1.5113     2.1307 C.2     
  18 C18            5.6390     0.9544     3.3819 C.ar    
  19 O19            7.3985     1.7167     2.0422 O.2     
  20 C20           -4.2401    -2.8112    -0.2850 C.1     
  21 C21            6.3031    -0.0580     4.0819 C.ar    
  22 C22            5.7422    -0.5489     5.2443 C.ar    
  23 N23            4.5971    -0.0768     5.6962 N.ar    
  24 C24            3.9370     0.8779     5.0677 C.ar    
  25 C25            4.4309     1.4304     3.8979 C.ar    
  26 N26           -5.3643    -2.9714    -0.3165 N.1     
  27 F27            2.7674     1.3252     5.5748 F       
  28 H28           -2.6090    -0.3873    -0.2862 H       
  29 H29           -2.0358    -4.6569    -0.1769 H       
  30 H30            0.2056    -3.4582    -0.1406 H       
  31 H31            3.3633     2.3340     1.1447 H       
  32 H32            3.7691     0.8401     2.0283 H       
  33 H33            4.1741    -0.3451    -0.0759 H       
  34 H34            3.7878     0.8026    -2.2511 H       
  35 H35            3.5265     2.3354    -1.3853 H       
  36 H36            6.0806     0.6661    -1.2909 H       
  37 H37            5.8565     2.1552    -2.2409 H       
  38 H38            6.9999     2.5537    -0.0305 H       
  39 H39            5.4685     3.4506    -0.1969 H       
  40 H40            7.2413    -0.4504     3.7183 H       
  41 H41            6.2484    -1.3310     5.7907 H       
  42 H42            3.8867     2.2115     3.3880 H       
@<TRIPOS>BOND
   1    1    2 1
   2    1    5 1
   3    2    3 2
   4    2    6 1
   5    3    4 1
   6    4    5 2
   7    4   12 1
   8    6    7 2
   9    6   10 1
  10    7    8 1
  11    7   28 1
  12    8    9 2
  13    8   20 1
  14    9   10 1
  15    9   29 1
  16   10   30 1
  17   11   12 1
  18   11   16 1
  19   11   31 1
  20   11   32 1
  21   12   13 1
  22   12   33 1
  23   13   14 1
  24   13   34 1
  25   13   35 1
  26   14   15 1
  27   14   36 1
  28   14   37 1
  29   15   16 1
  30   15   38 1
  31   15   39 1
  32   16   17 am
  33   17   18 1
  34   17   19 2
  35   18   21 ar
  36   18   25 ar
  37   20   26 3
  38   21   22 ar
  39   21   40 1
  40   22   23 ar
  41   22   41 1
  42   23   24 ar
  43   24   25 ar
  44   24   27 1
  45   25   42 1

#	End of record

