#	Name: ASD00071080
#	Creating user name:	WinNT
#	Creation time:	15. 06. 2019 18:30

#	Modifying user name:	WinNT
#	Modification time:	15. 06. 2019 18:30

#	Program:	/corina/corina34_cracker 3.40 0067  02.08.2006

@<TRIPOS>MOLECULE
ASD00071080
  41   43    0    0    0
SMALL
NO_CHARGES


@<TRIPOS>ATOM
   1 N1            -0.0157     1.3065     0.0092 N.2     
   2 C2             0.0021    -0.0041     0.0020 C.2     
   3 N3             1.1984    -0.6822     0.0317 N.pl3   
   4 C4             2.3732    -0.0684    -0.6058 C.3     
   5 C5             2.3601     1.4066    -0.2838 C.ar    
   6 C6             3.5306     2.1320    -0.2741 C.ar    
   7 C7             3.5023     3.4864     0.0113 C.ar    
   8 C8             2.3010     4.1157     0.2867 C.ar    
   9 C9             1.1230     3.3980     0.2846 C.ar    
  10 C10            1.1441     2.0306     0.0020 C.ar    
  11 N11           -1.1783    -0.7029    -0.0348 N.pl3   
  12 C12            1.3004    -1.9893     0.6854 C.3     
  13 C13            1.0037    -3.0761    -0.3155 C.ar    
  14 C14            1.9856    -3.4841    -1.2076 C.ar    
  15 C15            1.7121    -4.4838    -2.1280 C.ar    
  16 C16            0.4577    -5.0738    -2.1550 C.ar    
  17 C17           -0.5206    -4.6625    -1.2611 C.ar    
  18 C18           -0.2437    -3.6695    -0.3406 C.ar    
  19 O19            0.1864    -6.0539    -3.0565 O.3     
  20 C20           -1.1267    -6.6168    -3.0273 C.3     
  21 O21            3.2141    -2.9036    -1.1790 O.3     
  22 C22            4.1757    -3.3731    -2.1260 C.3     
  23 H23            3.2838    -0.5228    -0.2154 H       
  24 H24            2.3231    -0.2105    -1.6853 H       
  25 H25            4.4702     1.6446    -0.4885 H       
  26 H26            4.4211     4.0539     0.0193 H       
  27 H27            2.2857     5.1734     0.5045 H       
  28 H28            0.1873     3.8920     0.5009 H       
  29 H29           -2.0233    -0.2269    -0.0555 H       
  30 H30           -1.1678    -1.6728    -0.0402 H       
  31 H31            2.3088    -2.1217     1.0774 H       
  32 H32            0.5825    -2.0432     1.5038 H       
  33 H33            2.4748    -4.8023    -2.8232 H       
  34 H34           -1.4978    -5.1217    -1.2817 H       
  35 H35           -1.0050    -3.3537     0.3572 H       
  36 H36           -1.2097    -7.3854    -3.7957 H       
  37 H37           -1.3103    -7.0601    -2.0486 H       
  38 H38           -1.8618    -5.8342    -3.2153 H       
  39 H39            5.1104    -2.8277    -1.9955 H       
  40 H40            4.3509    -4.4373    -1.9687 H       
  41 H41            3.7992    -3.2123    -3.1362 H       
@<TRIPOS>BOND
   1    1    2 2
   2    1   10 1
   3    2    3 1
   4    2   11 1
   5    3    4 1
   6    3   12 1
   7    4    5 1
   8    4   23 1
   9    4   24 1
  10    5    6 ar
  11    5   10 ar
  12    6    7 ar
  13    6   25 1
  14    7    8 ar
  15    7   26 1
  16    8    9 ar
  17    8   27 1
  18    9   10 ar
  19    9   28 1
  20   11   29 1
  21   11   30 1
  22   12   13 1
  23   12   31 1
  24   12   32 1
  25   13   14 ar
  26   13   18 ar
  27   14   15 ar
  28   14   21 1
  29   15   16 ar
  30   15   33 1
  31   16   17 ar
  32   16   19 1
  33   17   18 ar
  34   17   34 1
  35   18   35 1
  36   19   20 1
  37   20   36 1
  38   20   37 1
  39   20   38 1
  40   21   22 1
  41   22   39 1
  42   22   40 1
  43   22   41 1

#	End of record

