#	Name: ASD02198743
#	Creating user name:	WinNT
#	Creation time:	15. 06. 2019 20:20

#	Modifying user name:	WinNT
#	Modification time:	15. 06. 2019 20:20

#	Program:	/corina/corina34_cracker 3.40 0067  02.08.2006

@<TRIPOS>MOLECULE
ASD02198743
  44   48    0    0    0
SMALL
NO_CHARGES


@<TRIPOS>ATOM
   1 F1             2.2538    -1.7061     2.4720 F       
   2 C2            -0.0433     1.5014    -0.1150 C.2     
   3 C3            -0.0729     0.1618     0.0974 C.2     
   4 N4             1.0718    -0.5398     0.2603 N.pl3   
   5 N5             2.2363    -0.0050     0.2262 N.2     
   6 C6             2.4078     1.2842     0.0276 C.2     
   7 C7             1.2217     2.1355    -0.1605 C.2     
   8 C8             0.9805    -1.9172     0.4770 C.ar    
   9 C9             1.5823    -2.4860     1.5968 C.ar    
  10 C10            1.4931    -3.8461     1.8125 C.ar    
  11 C11            0.7986    -4.6505     0.9068 C.ar    
  12 C12            0.1962    -4.0756    -0.2147 C.ar    
  13 C13            0.2842    -2.7166    -0.4227 C.ar    
  14 C14            3.7647     1.8664    -0.0055 C.2     
  15 N15            4.3064     2.6063    -1.0189 N.pl3   
  16 N16            5.6082     2.9582    -0.6413 N.2     
  17 C17            5.8523     2.4591     0.5441 C.2     
  18 C18            4.7207     1.7710     0.9820 C.2     
  19 C19            3.6730     2.9507    -2.2197 C.ar    
  20 C20            3.8067     4.2338    -2.7337 C.ar    
  21 C21            3.1813     4.5702    -3.9183 C.ar    
  22 C22            2.4227     3.6309    -4.5924 C.ar    
  23 C23            2.2872     2.3525    -4.0829 C.ar    
  24 C24            2.9148     2.0082    -2.9017 C.ar    
  25 O25            1.3247     3.3385    -0.3487 O.2     
  26 C26            0.7014    -6.1070     1.1341 C.2     
  27 N27            1.2180    -6.7607     2.1484 N.2     
  28 O28            0.0641    -6.9848     0.3398 O.3     
  29 C29            0.2031    -8.2086     0.8873 C.2     
  30 C30            0.9232    -8.0627     2.0145 C.2     
  31 H31           -0.9547     2.0650    -0.2496 H       
  32 H32           -1.0227    -0.3507     0.1374 H       
  33 H33            1.9602    -4.2878     2.6803 H       
  34 H34           -0.3412    -4.6959    -0.9167 H       
  35 H35           -0.1820    -2.2726    -1.2898 H       
  36 H36            6.7758     2.5658     1.0939 H       
  37 H37            4.6152     1.2515     1.9229 H       
  38 H38            4.3988     4.9680    -2.2076 H       
  39 H39            3.2846     5.5680    -4.3184 H       
  40 H40            1.9346     3.8964    -5.5185 H       
  41 H41            1.6938     1.6212    -4.6115 H       
  42 H42            2.8089     1.0095    -2.5045 H       
  43 H43           -0.1922    -9.1341     0.4954 H       
  44 H44            1.2130    -8.8532     2.6909 H       
@<TRIPOS>BOND
   1    1    9 1
   2    2    3 2
   3    2    7 1
   4    2   31 1
   5    3    4 1
   6    3   32 1
   7    4    5 1
   8    4    8 1
   9    5    6 2
  10    6    7 1
  11    6   14 1
  12    7   25 2
  13    8    9 ar
  14    8   13 ar
  15    9   10 ar
  16   10   11 ar
  17   10   33 1
  18   11   12 ar
  19   11   26 1
  20   12   13 ar
  21   12   34 1
  22   13   35 1
  23   14   15 1
  24   14   18 2
  25   15   16 1
  26   15   19 1
  27   16   17 2
  28   17   18 1
  29   17   36 1
  30   18   37 1
  31   19   20 ar
  32   19   24 ar
  33   20   21 ar
  34   20   38 1
  35   21   22 ar
  36   21   39 1
  37   22   23 ar
  38   22   40 1
  39   23   24 ar
  40   23   41 1
  41   24   42 1
  42   26   28 1
  43   26   27 2
  44   27   30 1
  45   28   29 1
  46   29   30 2
  47   29   43 1
  48   30   44 1

#	End of record

