#	Name: ASD03081186
#	Creating user name:	WinNT
#	Creation time:	15. 06. 2019 20:27

#	Modifying user name:	WinNT
#	Modification time:	15. 06. 2019 20:27

#	Program:	/corina/corina34_cracker 3.40 0067  02.08.2006

@<TRIPOS>MOLECULE
ASD03081186
  26   28    0    0    0
SMALL
NO_CHARGES


@<TRIPOS>ATOM
   1 C1            -0.0070     1.5553     0.0415 C.3     
   2 C2             0.0271     0.0087     0.0264 C.3     
   3 N3            -0.8895    -0.3665     1.1329 N.3     
   4 C4            -0.6334     0.6069     2.2161 C.3     
   5 C5            -0.0858     1.8861     1.5561 C.3     
   6 N6             1.3929     1.9253     1.5228 N.3     
   7 C7             1.3903     2.1938     0.0696 C.3     
   8 C8            -1.6770    -2.5996     1.6273 C.ar    
   9 C9            -0.6444    -1.6729     1.5652 C.ar    
  10 C10            0.6388    -2.0640     1.9394 C.ar    
  11 C11            0.8325    -3.3701     2.3607 C.ar    
  12 C12           -0.2477    -4.2363     2.3954 C.ar    
  13 N13           -1.4509    -3.8331     2.0339 N.ar    
  14 Cl14          -0.0154    -5.8744     2.9211 Cl      
  15 Cl15           2.4103    -3.9141     2.8387 Cl      
  16 H16           -0.7400     2.0155    -0.6211 H       
  17 H17           -0.5956     2.8084     1.8346 H       
  18 H18           -0.3421    -0.3744    -0.9249 H       
  19 H19            1.0356    -0.3552     0.2229 H       
  20 H20           -1.5616     0.8291     2.7426 H       
  21 H21            0.1031     0.2035     2.9111 H       
  22 H22            1.7452     2.7190     2.0366 H       
  23 H23            2.1412     1.6275    -0.4812 H       
  24 H24            1.3914     3.2551    -0.1791 H       
  25 H25           -2.6767    -2.3053     1.3436 H       
  26 H26            1.4627    -1.3667     1.9019 H       
@<TRIPOS>BOND
   1    1    2 1
   2    1    7 1
   3    1    5 1
   4    1   16 1
   5    2    3 1
   6    2   18 1
   7    2   19 1
   8    3    4 1
   9    3    9 1
  10    4    5 1
  11    4   20 1
  12    4   21 1
  13    5    6 1
  14    5   17 1
  15    6    7 1
  16    6   22 1
  17    7   23 1
  18    7   24 1
  19    8    9 ar
  20    8   13 ar
  21    8   25 1
  22    9   10 ar
  23   10   11 ar
  24   10   26 1
  25   11   12 ar
  26   11   15 1
  27   12   13 ar
  28   12   14 1

#	End of record

