#	Name: ASD03540211
#	Creating user name:	WinNT
#	Creation time:	15. 06. 2019 20:42

#	Modifying user name:	WinNT
#	Modification time:	15. 06. 2019 20:42

#	Program:	/corina/corina34_cracker 3.40 0067  02.08.2006

@<TRIPOS>MOLECULE
ASD03540211
  54   58    0    0    0
SMALL
NO_CHARGES


@<TRIPOS>ATOM
   1 C1            -0.0161     1.3365     0.0094 C.2     
   2 N2             0.0021    -0.0041     0.0020 N.am    
   3 C3             1.1931    -0.7075    -0.0132 C.2     
   4 C4             2.3928    -0.0051    -0.0209 C.2     
   5 C5             2.3194     1.4734    -0.0115 C.2     
   6 N6             1.1110     2.0661     0.0025 N.am    
   7 C7             3.5129    -0.8381    -0.0361 C.2     
   8 C8             3.2256    -2.1516    -0.0404 C.2     
   9 S9             1.4874    -2.3902    -0.0250 S.3     
  10 C10            4.2183    -3.2259    -0.0565 C.2     
  11 O11            5.4048    -2.9577    -0.0671 O.2     
  12 O12            3.8179    -4.5143    -0.0595 O.3     
  13 O13            3.3358     2.1426    -0.0175 O.2     
  14 O14           -1.0880     1.9101     0.0175 O.2     
  15 C15           -1.2652    -0.7390     0.0107 C.3     
  16 C16            1.0243     3.5285     0.0113 C.3     
  17 C17            1.0079     4.0298     1.4567 C.3     
  18 C18           -0.2310     6.1863     1.4802 C.2     
  19 N19            0.9212     5.4922     1.4655 N.am    
  20 C20            1.9834     6.3177     1.4605 C.2     
  21 C21            1.4955     7.7130     1.4733 C.ar    
  22 C22            2.1121     8.9539     1.4746 C.ar    
  23 C23            1.3400    10.1049     1.4882 C.ar    
  24 C24           -0.0398    10.0230     1.5005 C.ar    
  25 C25           -0.6705     8.7887     1.4994 C.ar    
  26 C26            0.0886     7.6295     1.4859 C.ar    
  27 O27            3.1482     5.9742     1.4477 O.2     
  28 O28           -1.3471     5.7074     1.4832 O.2     
  29 C29            4.8413    -5.5116    -0.0754 C.3     
  30 C30            4.2094    -6.8798    -0.0765 C.ar    
  31 C31            3.9074    -7.5007    -1.2740 C.ar    
  32 C32            3.3277    -8.7556    -1.2750 C.ar    
  33 C33            3.0505    -9.3898    -0.0785 C.ar    
  34 C34            3.3533    -8.7693     1.1191 C.ar    
  35 C35            3.9370    -7.5162     1.1200 C.ar    
  36 H36            4.5244    -0.4597    -0.0438 H       
  37 H37           -2.0950    -0.0322     0.0228 H       
  38 H38           -1.3307    -1.3609    -0.8820 H       
  39 H39           -1.3130    -1.3705     0.8978 H       
  40 H40            1.8863     3.9467    -0.5086 H       
  41 H41            0.1095     3.8412    -0.4921 H       
  42 H42            0.1460     3.6116     1.9766 H       
  43 H43            1.9227     3.7170     1.9601 H       
  44 H44            3.1898     9.0240     1.4654 H       
  45 H45            1.8197    11.0725     1.4896 H       
  46 H46           -0.6306    10.9270     1.5114 H       
  47 H47           -1.7489     8.7307     1.5090 H       
  48 H48            5.4510    -5.3923    -0.9710 H       
  49 H49            5.4691    -5.4021     0.8089 H       
  50 H50            4.1240    -7.0051    -2.2089 H       
  51 H51            3.0911    -9.2404    -2.2107 H       
  52 H52            2.5970   -10.3700    -0.0792 H       
  53 H53            3.1364    -9.2647     2.0539 H       
  54 H54            4.1770    -7.0330     2.0556 H       
@<TRIPOS>BOND
   1    1    2 am
   2    1    6 am
   3    1   14 2
   4    2    3 1
   5    2   15 1
   6    3    4 2
   7    3    9 1
   8    4    5 1
   9    4    7 1
  10    5    6 am
  11    5   13 2
  12    6   16 1
  13    7    8 2
  14    7   36 1
  15    8    9 1
  16    8   10 1
  17   10   11 2
  18   10   12 1
  19   12   29 1
  20   15   37 1
  21   15   38 1
  22   15   39 1
  23   16   17 1
  24   16   40 1
  25   16   41 1
  26   17   19 1
  27   17   42 1
  28   17   43 1
  29   18   19 am
  30   18   26 1
  31   18   28 2
  32   19   20 am
  33   20   21 1
  34   20   27 2
  35   21   22 ar
  36   21   26 ar
  37   22   23 ar
  38   22   44 1
  39   23   24 ar
  40   23   45 1
  41   24   25 ar
  42   24   46 1
  43   25   26 ar
  44   25   47 1
  45   29   30 1
  46   29   48 1
  47   29   49 1
  48   30   31 ar
  49   30   35 ar
  50   31   32 ar
  51   31   50 1
  52   32   33 ar
  53   32   51 1
  54   33   34 ar
  55   33   52 1
  56   34   35 ar
  57   34   53 1
  58   35   54 1

#	End of record

