#	Name: ASD01816621
#	Creating user name:	WinNT
#	Creation time:	15. 06. 2019 19:35

#	Modifying user name:	WinNT
#	Modification time:	15. 06. 2019 19:35

#	Program:	/corina/corina34_cracker 3.40 0067  02.08.2006

@<TRIPOS>MOLECULE
ASD01816621
  61   66    0    0    0
SMALL
NO_CHARGES


@<TRIPOS>ATOM
   1 C1            -0.5572     0.7194     0.2457 C.ar    
   2 C2            -0.2960    -0.6411     0.2309 C.ar    
   3 C3             0.9989    -1.1075     0.1365 C.ar    
   4 C4             2.0580    -0.2104     0.0554 C.ar    
   5 C5             1.7898     1.1686     0.0706 C.ar    
   6 C6             0.4798     1.6263     0.1657 C.ar    
   7 N7             3.3597    -0.6717    -0.0386 N.pl3   
   8 C8             4.4214     0.1463    -0.1196 C.2     
   9 C9             4.2826     1.5120    -0.1144 C.2     
  10 C10            2.9283     2.1029    -0.0166 C.2     
  11 C11            5.1910     2.6522    -0.1857 C.2     
  12 N12            4.4145     3.7559    -0.1329 N.am    
  13 N13            3.0679     3.3973    -0.0320 N.2     
  14 O14            6.4075     2.6156    -0.2748 O.2     
  15 C15            4.8909     5.0715    -0.1727 C.ar    
  16 C16            4.5534     5.9648     0.8362 C.ar    
  17 C17            5.7066     5.4849    -1.2178 C.ar    
  18 C18            6.1754     6.7836    -1.2538 C.ar    
  19 C19            5.8337     7.6717    -0.2506 C.ar    
  20 C20            5.0254     7.2618     0.7942 C.ar    
  21 C21            3.5895    -2.1186    -0.0497 C.3     
  22 C22            3.5640    -2.6204    -1.4704 C.ar    
  23 C23            4.7326    -2.6619    -2.2085 C.ar    
  24 C24            4.7127    -3.1212    -3.5108 C.ar    
  25 C25            3.5172    -3.5421    -4.0789 C.ar    
  26 C26            2.3453    -3.4995    -3.3347 C.ar    
  27 C27            2.3730    -3.0436    -2.0313 C.ar    
  28 N28            3.4934    -4.0074    -5.3975 N.am    
  29 C29            4.5341    -4.7138    -5.8817 C.2     
  30 O30            5.5289    -4.8740    -5.2017 O.2     
  31 C31            4.4658    -5.2937    -7.2397 C.ar    
  32 C32            5.5419    -6.0258    -7.7442 C.ar    
  33 C33            5.4716    -6.5643    -9.0124 C.ar    
  34 C34            4.3380    -6.3796    -9.7839 C.ar    
  35 C35            3.2679    -5.6550    -9.2898 C.ar    
  36 C36            3.3226    -5.1164    -8.0209 C.ar    
  37 C37            3.6727     5.5191     1.9750 C.3     
  38 H38           -1.5759     1.0713     0.3155 H       
  39 H39           -1.1140    -1.3434     0.2943 H       
  40 H40            1.1901    -2.1703     0.1260 H       
  41 H41            0.2752     2.6867     0.1769 H       
  42 H42            5.4106    -0.2814    -0.1904 H       
  43 H43            5.9745     4.7915    -2.0013 H       
  44 H44            6.8099     7.1057    -2.0663 H       
  45 H45            6.2022     8.6864    -0.2808 H       
  46 H46            4.7600     7.9580     1.5761 H       
  47 H47            4.5608    -2.3356     0.3949 H       
  48 H48            2.8077    -2.6151     0.5251 H       
  49 H49            5.6619    -2.3345    -1.7662 H       
  50 H50            5.6256    -3.1528    -4.0870 H       
  51 H51            1.4140    -3.8261    -3.7735 H       
  52 H52            1.4621    -3.0106    -1.4519 H       
  53 H53            2.7279    -3.8217    -5.9636 H       
  54 H54            6.4275    -6.1701    -7.1433 H       
  55 H55            6.3034    -7.1309    -9.4040 H       
  56 H56            4.2884    -6.8027   -10.7763 H       
  57 H57            2.3861    -5.5142    -9.8973 H       
  58 H58            2.4847    -4.5551    -7.6346 H       
  59 H59            4.2922     5.1258     2.7809 H       
  60 H60            3.0954     6.3679     2.3415 H       
  61 H61            2.9935     4.7413     1.6261 H       
@<TRIPOS>BOND
   1    1    2 ar
   2    1    6 ar
   3    1   38 1
   4    2    3 ar
   5    2   39 1
   6    3    4 ar
   7    3   40 1
   8    4    5 ar
   9    4    7 1
  10    5    6 ar
  11    5   10 1
  12    6   41 1
  13    7    8 1
  14    7   21 1
  15    8    9 2
  16    8   42 1
  17    9   10 1
  18    9   11 1
  19   10   13 2
  20   11   12 am
  21   11   14 2
  22   12   13 1
  23   12   15 1
  24   15   16 ar
  25   15   17 ar
  26   16   37 1
  27   16   20 ar
  28   17   18 ar
  29   17   43 1
  30   18   19 ar
  31   18   44 1
  32   19   20 ar
  33   19   45 1
  34   20   46 1
  35   21   22 1
  36   21   47 1
  37   21   48 1
  38   22   23 ar
  39   22   27 ar
  40   23   24 ar
  41   23   49 1
  42   24   25 ar
  43   24   50 1
  44   25   26 ar
  45   25   28 1
  46   26   27 ar
  47   26   51 1
  48   27   52 1
  49   28   29 am
  50   28   53 1
  51   29   30 2
  52   29   31 1
  53   31   32 ar
  54   31   36 ar
  55   32   33 ar
  56   32   54 1
  57   33   34 ar
  58   33   55 1
  59   34   35 ar
  60   34   56 1
  61   35   36 ar
  62   35   57 1
  63   36   58 1
  64   37   59 1
  65   37   60 1
  66   37   61 1

#	End of record

