#	Name: ASD01150832
#	Creating user name:	WinNT
#	Creation time:	15. 06. 2019 19:05

#	Modifying user name:	WinNT
#	Modification time:	15. 06. 2019 19:05

#	Program:	/corina/corina34_cracker 3.40 0067  02.08.2006

@<TRIPOS>MOLECULE
ASD01150832
  65   69    0    0    0
SMALL
NO_CHARGES


@<TRIPOS>ATOM
   1 C1            -0.0157     1.3101     0.0092 C.2     
   2 N2             0.0021    -0.0041     0.0020 N.2     
   3 C3             1.2642    -0.4437    -0.0124 C.2     
   4 C4             2.0962     0.6684    -0.0144 C.2     
   5 N5             1.2521     1.7788    -0.0003 N.pl3   
   6 C6             3.5070     0.6738    -0.0271 C.2     
   7 O7             4.1198    -0.3782    -0.0384 O.2     
   8 O8             4.1777     1.8458    -0.0268 O.3     
   9 O9            -1.1302     2.0752     0.0189 O.3     
  10 C10           -2.3856     1.3926     0.0220 C.3     
  11 N11            1.6707    -1.7737    -0.0230 N.am    
  12 C12            0.7515    -2.7594    -0.0196 C.2     
  13 O13           -0.4301    -2.4865    -0.0072 O.2     
  14 O14            0.0501    -5.0554     0.0926 O.3     
  15 C15            1.1919    -4.2005    -0.0311 C.3     
  16 C16            1.8882    -4.5183    -1.3613 C.3     
  17 O17            2.2814    -5.8950    -1.3436 O.3     
  18 C18            1.3510    -6.7913    -0.9153 C.ar    
  19 C19            0.2379    -6.3723    -0.1957 C.ar    
  20 C20            1.5202    -8.1374    -1.2017 C.ar    
  21 C21            0.5852    -9.0600    -0.7710 C.ar    
  22 C22           -0.5207    -8.6436    -0.0542 C.ar    
  23 C23           -0.6956    -7.3030     0.2344 C.ar    
  24 O24            2.6906     7.1029     0.2491 O.3     
  25 C25            2.5391     7.2667     1.6715 C.3     
  26 O26            1.5955     6.2418     2.0354 O.3     
  27 C27            1.7483     5.2574     1.1020 C.ar    
  28 C28            2.4218     5.7866     0.0030 C.ar    
  29 C29            1.3611     3.9283     1.0994 C.ar    
  30 C30            1.6442     3.1253     0.0027 C.ar    
  31 C31            2.3155     3.6551    -1.0904 C.ar    
  32 C32            2.7026     4.9818    -1.0889 C.ar    
  33 C33            5.6049     1.7765    -0.0401 C.3     
  34 C34            6.1843     3.1926    -0.0377 C.3     
  35 C35            6.0906     1.0246     1.2007 C.3     
  36 C36            6.0680     1.0382    -1.2976 C.3     
  37 O37            7.6115     3.1233    -0.0510 O.3     
  38 C38            8.2554     4.3990    -0.0499 C.3     
  39 H39           -2.4640     0.7721    -0.8708 H       
  40 H40           -2.4548     0.7631     0.9091 H       
  41 H41           -3.1957     2.1219     0.0299 H       
  42 H42            2.6158    -1.9920    -0.0329 H       
  43 H43            1.8781    -4.3817     0.7962 H       
  44 H44            1.1994    -4.3434    -2.1878 H       
  45 H45            2.7686    -3.8860    -1.4757 H       
  46 H46            2.3832    -8.4653    -1.7622 H       
  47 H47            0.7189   -10.1080    -0.9953 H       
  48 H48           -1.2491    -9.3668     0.2815 H       
  49 H49           -1.5604    -6.9803     0.7951 H       
  50 H50            3.4908     7.1086     2.1788 H       
  51 H51            2.1400     8.2542     1.9029 H       
  52 H52            0.8392     3.5160     1.9504 H       
  53 H53            2.5360     3.0298    -1.9429 H       
  54 H54            3.2247     5.3920    -1.9408 H       
  55 H55            5.8383     3.7282    -0.9217 H       
  56 H56            5.8544     3.7186     0.8582 H       
  57 H57            5.6779     0.0158     1.1990 H       
  58 H58            7.1793     0.9718     1.1906 H       
  59 H59            5.7607     1.5506     2.0966 H       
  60 H60            5.7220     1.5738    -2.1816 H       
  61 H61            7.1567     0.9854    -1.3078 H       
  62 H62            5.6552     0.0294    -1.2994 H       
  63 H63            7.9523     4.9597    -0.9341 H       
  64 H64            7.9685     4.9501     0.8457 H       
  65 H65            9.3365     4.2604    -0.0604 H       
@<TRIPOS>BOND
   1    1    2 2
   2    1    5 1
   3    1    9 1
   4    2    3 1
   5    3    4 2
   6    3   11 1
   7    4    5 1
   8    4    6 1
   9    5   30 1
  10    6    7 2
  11    6    8 1
  12    8   33 1
  13    9   10 1
  14   10   39 1
  15   10   40 1
  16   10   41 1
  17   11   12 am
  18   11   42 1
  19   12   13 2
  20   12   15 1
  21   14   15 1
  22   14   19 1
  23   15   16 1
  24   15   43 1
  25   16   17 1
  26   16   44 1
  27   16   45 1
  28   17   18 1
  29   18   19 ar
  30   18   20 ar
  31   19   23 ar
  32   20   21 ar
  33   20   46 1
  34   21   22 ar
  35   21   47 1
  36   22   23 ar
  37   22   48 1
  38   23   49 1
  39   24   25 1
  40   24   28 1
  41   25   26 1
  42   25   50 1
  43   25   51 1
  44   26   27 1
  45   27   28 ar
  46   27   29 ar
  47   28   32 ar
  48   29   30 ar
  49   29   52 1
  50   30   31 ar
  51   31   32 ar
  52   31   53 1
  53   32   54 1
  54   33   34 1
  55   33   35 1
  56   33   36 1
  57   34   37 1
  58   34   55 1
  59   34   56 1
  60   35   57 1
  61   35   58 1
  62   35   59 1
  63   36   60 1
  64   36   61 1
  65   36   62 1
  66   37   38 1
  67   38   63 1
  68   38   64 1
  69   38   65 1

#	End of record

