#	Name: ASD01816482
#	Creating user name:	WinNT
#	Creation time:	15. 06. 2019 19:35

#	Modifying user name:	WinNT
#	Modification time:	15. 06. 2019 19:35

#	Program:	/corina/corina34_cracker 3.40 0067  02.08.2006

@<TRIPOS>MOLECULE
ASD01816482
  66   72    0    0    0
SMALL
NO_CHARGES


@<TRIPOS>ATOM
   1 C1             0.0058     1.3892    -0.0594 C.ar    
   2 C2             0.0261     0.0039    -0.0757 C.ar    
   3 C3             1.2232    -0.6816    -0.0845 C.ar    
   4 C4             2.4256     0.0165    -0.0771 C.ar    
   5 C5             2.4016     1.4211    -0.0606 C.ar    
   6 C6             1.1880     2.1008    -0.0519 C.ar    
   7 N7             3.6302    -0.6652    -0.0854 N.pl3   
   8 C8             4.8213    -0.0453    -0.0788 C.2     
   9 C9             4.9227     1.3236    -0.0628 C.2     
  10 C10            3.6888     2.1420    -0.0530 C.2     
  11 C11            6.0188     2.2875    -0.0523 C.2     
  12 N12            5.4448     3.5099    -0.0381 N.am    
  13 N13            4.0526     3.3922    -0.0388 N.2     
  14 C14            6.1418     4.7166    -0.0246 C.ar    
  15 O15            7.2132     2.0388    -0.0553 O.2     
  16 C16            3.6045    -2.1299    -0.1015 C.3     
  17 C17            3.5947    -2.6164    -1.5278 C.ar    
  18 C18            4.7885    -2.8602    -2.1818 C.ar    
  19 C19            4.7828    -3.3057    -3.4892 C.ar    
  20 C20            3.5769    -3.5092    -4.1465 C.ar    
  21 C21            2.3800    -3.2640    -3.4870 C.ar    
  22 C22            2.3921    -2.8235    -2.1780 C.ar    
  23 N23            3.5679    -3.9609    -5.4735 N.pl3   
  24 C24            2.4697    -4.1985    -6.2259 C.2     
  25 C25            2.8871    -4.6198    -7.4422 C.2     
  26 C26            4.2862    -4.6406    -7.4341 C.2     
  27 N27            4.6951    -4.2403    -6.2570 N.2     
  28 C28            7.0864     4.9876    -1.0051 C.ar    
  29 C29            7.7754     6.1840    -0.9901 C.ar    
  30 C30            7.5311     7.1214     0.0002 C.ar    
  31 C31            6.5970     6.8694     0.9822 C.ar    
  32 C32            5.8881     5.6663     0.9769 C.ar    
  33 C33            4.8868     5.3905     2.0246 C.2     
  34 O34            4.9666     4.3759     2.6899 O.2     
  35 N35            3.8834     6.2632     2.2443 N.am    
  36 C36            3.8181     7.5410     1.5175 C.3     
  37 C37            2.4143     7.6856     0.9190 C.3     
  38 O38            1.4414     7.4902     1.9481 O.3     
  39 C39            1.4653     6.1874     2.5363 C.3     
  40 C40            2.8175     5.9635     3.2135 C.3     
  41 H41           -0.9383     1.9137    -0.0572 H       
  42 H42           -0.9042    -0.5445    -0.0812 H       
  43 H43            1.2264    -1.7615    -0.0969 H       
  44 H44            1.1711     3.1806    -0.0395 H       
  45 H45            5.7233    -0.6393    -0.0860 H       
  46 H46            4.4882    -2.5144     0.4075 H       
  47 H47            2.7086    -2.4832     0.4090 H       
  48 H48            5.7262    -2.7017    -1.6700 H       
  49 H49            5.7154    -3.4953    -3.9997 H       
  50 H50            1.4404    -3.4210    -3.9959 H       
  51 H51            1.4613    -2.6326    -1.6645 H       
  52 H52            1.4437    -4.0750    -5.9122 H       
  53 H53            2.2525    -4.8918    -8.2726 H       
  54 H54            4.9197    -4.9324    -8.2587 H       
  55 H55            7.2828     4.2617    -1.7803 H       
  56 H56            8.5096     6.3901    -1.7548 H       
  57 H57            8.0754     8.0542     0.0030 H       
  58 H58            6.4109     7.6032     1.7524 H       
  59 H59            4.0107     8.3646     2.2049 H       
  60 H60            4.5601     7.5475     0.7190 H       
  61 H61            2.3003     8.6833     0.4949 H       
  62 H62            2.2728     6.9388     0.1377 H       
  63 H63            0.6686     6.1071     3.2759 H       
  64 H64            1.3204     5.4351     1.7609 H       
  65 H65            2.8973     4.9267     3.5403 H       
  66 H66            2.9125     6.6280     4.0723 H       
@<TRIPOS>BOND
   1    1    2 ar
   2    1    6 ar
   3    1   41 1
   4    2    3 ar
   5    2   42 1
   6    3    4 ar
   7    3   43 1
   8    4    5 ar
   9    4    7 1
  10    5    6 ar
  11    5   10 1
  12    6   44 1
  13    7    8 1
  14    7   16 1
  15    8    9 2
  16    8   45 1
  17    9   10 1
  18    9   11 1
  19   10   13 2
  20   11   12 am
  21   11   15 2
  22   12   13 1
  23   12   14 1
  24   14   28 ar
  25   14   32 ar
  26   16   17 1
  27   16   46 1
  28   16   47 1
  29   17   18 ar
  30   17   22 ar
  31   18   19 ar
  32   18   48 1
  33   19   20 ar
  34   19   49 1
  35   20   21 ar
  36   20   23 1
  37   21   22 ar
  38   21   50 1
  39   22   51 1
  40   23   24 1
  41   23   27 1
  42   24   25 2
  43   24   52 1
  44   25   26 1
  45   25   53 1
  46   26   27 2
  47   26   54 1
  48   28   29 ar
  49   28   55 1
  50   29   30 ar
  51   29   56 1
  52   30   31 ar
  53   30   57 1
  54   31   32 ar
  55   31   58 1
  56   32   33 1
  57   33   34 2
  58   33   35 am
  59   35   36 1
  60   35   40 1
  61   36   37 1
  62   36   59 1
  63   36   60 1
  64   37   38 1
  65   37   61 1
  66   37   62 1
  67   38   39 1
  68   39   40 1
  69   39   63 1
  70   39   64 1
  71   40   65 1
  72   40   66 1

#	End of record

