#	Name: ASD01812580
#	Creating user name:	WinNT
#	Creation time:	15. 06. 2019 19:28

#	Modifying user name:	WinNT
#	Modification time:	15. 06. 2019 19:28

#	Program:	/corina/corina34_cracker 3.40 0067  02.08.2006

@<TRIPOS>MOLECULE
ASD01812580
  55   59    0    0    0
SMALL
NO_CHARGES


@<TRIPOS>ATOM
   1 O1            -0.0173     1.4248     0.0099 O.3     
   2 C2             0.0021    -0.0041     0.0020 C.3     
   3 H3             0.5121    -0.3569    -0.8944 H       
   4 C4             0.7388    -0.5134     1.2447 C.3     
   5 C5             0.6861    -2.0432     1.2683 C.3     
   6 O6            -0.6770    -2.4719     1.2523 O.3     
   7 C7            -1.4029    -2.0651     0.0906 C.3     
   8 C8            -1.4343    -0.5361     0.0173 C.3     
   9 H9            -1.9595    -0.1417     0.8872 H       
  10 N10           -2.1247    -0.1167    -1.2048 N.am    
  11 C11           -3.3323     0.7148    -1.2647 C.3     
  12 C12           -3.6609     0.8738    -2.7279 C.ar    
  13 C13           -2.6947     0.1737    -3.4314 C.ar    
  14 C14           -2.7362     0.1375    -4.8384 C.ar    
  15 C15           -3.7154     0.7825    -5.5223 C.ar    
  16 C16           -3.7398     0.7300    -7.0282 C.3     
  17 N17           -3.1708     1.9709    -7.5708 N.3     
  18 C18           -1.7438     2.0829    -7.2430 C.3     
  19 C19           -1.2208     3.4483    -7.6950 C.3     
  20 C20           -1.4299     3.5951    -9.2047 C.3     
  21 F21           -1.0045     4.8634    -9.6144 F       
  22 F22           -0.6917     2.6148    -9.8765 F       
  23 C23           -2.9177     3.4263    -9.5248 C.3     
  24 C24           -3.3915     2.0616    -9.0197 C.3     
  25 C25           -4.7066     1.4988    -4.8300 C.ar    
  26 C26           -5.7327     2.1748    -5.5162 C.ar    
  27 C27           -6.6643     2.8513    -4.7812 C.ar    
  28 C28           -6.5809     2.8582    -3.3899 C.ar    
  29 N29           -5.6243     2.2279    -2.7538 N.ar    
  30 C30           -4.6809     1.5467    -3.4126 C.ar    
  31 C31           -1.7555    -0.4240    -2.4601 C.2     
  32 O32           -0.7883    -1.0989    -2.7540 O.2     
  33 H33            0.8606     1.8301     0.0037 H       
  34 H34            1.7777    -0.1851     1.2123 H       
  35 H35            0.2588    -0.1185     2.1401 H       
  36 H36            1.2018    -2.4383     0.3930 H       
  37 H37            1.1718    -2.4097     2.1727 H       
  38 H38           -0.9146    -2.4604    -0.8001 H       
  39 H39           -2.4222    -2.4473     0.1465 H       
  40 H40           -4.1543     0.2198    -0.7477 H       
  41 H41           -3.1391     1.6892    -0.8160 H       
  42 H42           -1.9792    -0.4101    -5.3802 H       
  43 H43           -3.1508    -0.1204    -7.3717 H       
  44 H44           -4.7687     0.6217    -7.3713 H       
  45 H45           -1.6094     1.9809    -6.1661 H       
  46 H46           -1.1908     1.2948    -7.7540 H       
  47 H47           -1.7639     4.2367    -7.1740 H       
  48 H48           -0.1579     3.5250    -7.4656 H       
  49 H49           -3.4875     4.2144    -9.0326 H       
  50 H50           -3.0672     3.4873   -10.6028 H       
  51 H51           -2.8308     1.2736    -9.5225 H       
  52 H52           -4.4539     1.9441    -9.2334 H       
  53 H53           -5.7821     2.1593    -6.5950 H       
  54 H54           -7.4643     3.3805    -5.2775 H       
  55 H55           -7.3239     3.3975    -2.8213 H       
@<TRIPOS>BOND
   1    1    2 1
   2    1   33 1
   3    2    3 1
   4    2    8 1
   5    2    4 1
   6    4    5 1
   7    4   34 1
   8    4   35 1
   9    5    6 1
  10    5   36 1
  11    5   37 1
  12    6    7 1
  13    7    8 1
  14    7   38 1
  15    7   39 1
  16    8    9 1
  17    8   10 1
  18   10   31 am
  19   10   11 1
  20   11   12 1
  21   11   40 1
  22   11   41 1
  23   12   30 ar
  24   12   13 ar
  25   13   14 ar
  26   13   31 1
  27   14   15 ar
  28   14   42 1
  29   15   16 1
  30   15   25 ar
  31   16   17 1
  32   16   43 1
  33   16   44 1
  34   17   24 1
  35   17   18 1
  36   18   19 1
  37   18   45 1
  38   18   46 1
  39   19   20 1
  40   19   47 1
  41   19   48 1
  42   20   21 1
  43   20   22 1
  44   20   23 1
  45   23   24 1
  46   23   49 1
  47   23   50 1
  48   24   51 1
  49   24   52 1
  50   25   30 ar
  51   25   26 ar
  52   26   27 ar
  53   26   53 1
  54   27   28 ar
  55   27   54 1
  56   28   29 ar
  57   28   55 1
  58   29   30 ar
  59   31   32 2

#	End of record

