#	Name: ASD03900024
#	Creating user name:	WinNT
#	Creation time:	15. 06. 2019 20:47

#	Modifying user name:	WinNT
#	Modification time:	15. 06. 2019 20:47

#	Program:	/corina/corina34_cracker 3.40 0067  02.08.2006

@<TRIPOS>MOLECULE
ASD03900024
  49   53    0    0    0
SMALL
NO_CHARGES


@<TRIPOS>ATOM
   1 C1            -0.1011     0.9484    -0.0592 C.ar    
   2 C2            -0.2819    -0.4272    -0.0107 C.ar    
   3 C3            -1.5615    -0.9483     0.0821 C.ar    
   4 C4            -2.6611    -0.1037     0.1263 C.ar    
   5 C5            -2.4791     1.2608     0.0779 C.ar    
   6 C6            -1.1973     1.7856    -0.0095 C.ar    
   7 C7            -5.0192     0.2342     0.8404 C.ar    
   8 C8            -4.8381     1.5991     0.7939 C.ar    
   9 C9            -3.6414     2.2138     0.1223 C.3     
  10 C10           -6.1388    -0.2922     1.4676 C.ar    
  11 C11           -7.0744     0.5465     2.0497 C.ar    
  12 C12           -6.8887     1.9217     2.0033 C.ar    
  13 C13           -5.7740     2.4417     1.3770 C.ar    
  14 O14           -3.2496     3.4200     0.8442 O.3     
  15 C15           -3.3486     4.4811     0.0195 C.2     
  16 C16           -3.8102     4.0500    -1.2990 C.ar    
  17 C17           -3.9986     2.6561    -1.2637 C.ar    
  18 C18           -4.0605     4.7768    -2.4667 C.ar    
  19 C19           -4.4972     4.0577    -3.5687 C.ar    
  20 C20           -4.6787     2.6894    -3.5230 C.ar    
  21 C21           -4.4331     1.9553    -2.3661 C.ar    
  22 O22           -3.0925     5.6281     0.3269 O.2     
  23 O23           -8.1694     0.0258     2.6643 O.3     
  24 O24            0.7924    -1.2590    -0.0544 O.3     
  25 C25           -4.0294    -0.7139     0.2273 C.3     
  26 Cl26           1.4984     1.6133    -0.1749 Cl      
  27 Cl27          -8.0540     2.9832     2.7305 Cl      
  28 C28           -9.3033    -0.0273     1.9472 C.2     
  29 O29           -9.3411     0.4555     0.8402 O.2     
  30 C30          -10.5287    -0.6889     2.5230 C.3     
  31 C31            1.4434    -1.4751     1.0997 C.2     
  32 O32            1.0075    -1.0247     2.1327 O.2     
  33 C33            2.7177    -2.2796     1.1069 C.3     
  34 H34           -1.7042    -2.0182     0.1198 H       
  35 H35           -1.0571     2.8558    -0.0472 H       
  36 H36           -6.2815    -1.3622     1.5025 H       
  37 H37           -5.6293     3.5114     1.3404 H       
  38 H38           -3.9208     5.8469    -2.5082 H       
  39 H39           -4.7018     4.5831    -4.4899 H       
  40 H40           -5.0210     2.1750    -4.4088 H       
  41 H41           -4.5762     0.8853    -2.3350 H       
  42 H42           -4.3709    -0.9871    -0.7711 H       
  43 H43           -3.9727    -1.6134     0.8402 H       
  44 H44          -10.3045    -1.0621     3.5223 H       
  45 H45          -11.3405     0.0363     2.5796 H       
  46 H46          -10.8275    -1.5196     1.8836 H       
  47 H47            2.9513    -2.5992     0.0913 H       
  48 H48            3.5325    -1.6660     1.4912 H       
  49 H49            2.5909    -3.1553     1.7433 H       
@<TRIPOS>BOND
   1    1    2 ar
   2    1   26 1
   3    1    6 ar
   4    2    3 ar
   5    2   24 1
   6    3    4 ar
   7    3   34 1
   8    4    5 ar
   9    4   25 1
  10    5    6 ar
  11    5    9 1
  12    6   35 1
  13    7    8 ar
  14    7   10 ar
  15    7   25 1
  16    8    9 1
  17    8   13 ar
  18    9   14 1
  19    9   17 1
  20   10   11 ar
  21   10   36 1
  22   11   12 ar
  23   11   23 1
  24   12   13 ar
  25   12   27 1
  26   13   37 1
  27   14   15 1
  28   15   16 1
  29   15   22 2
  30   16   17 ar
  31   16   18 ar
  32   17   21 ar
  33   18   19 ar
  34   18   38 1
  35   19   20 ar
  36   19   39 1
  37   20   21 ar
  38   20   40 1
  39   21   41 1
  40   23   28 1
  41   24   31 1
  42   25   42 1
  43   25   43 1
  44   28   29 2
  45   28   30 1
  46   30   44 1
  47   30   45 1
  48   30   46 1
  49   31   32 2
  50   31   33 1
  51   33   47 1
  52   33   48 1
  53   33   49 1

#	End of record

