#	Name: ASD01900738
#	Creating user name:	WinNT
#	Creation time:	15. 06. 2019 19:52

#	Modifying user name:	WinNT
#	Modification time:	15. 06. 2019 19:52

#	Program:	/corina/corina34_cracker 3.40 0067  02.08.2006

@<TRIPOS>MOLECULE
ASD01900738
  51   55    0    0    0
SMALL
NO_CHARGES


@<TRIPOS>ATOM
   1 C1            -0.0157     1.4087    -0.1144 C.ar    
   2 C2             0.0118     0.0197    -0.1185 C.ar    
   3 C3            -1.1603    -0.7070    -0.0674 C.ar    
   4 C4            -2.3833    -0.0520    -0.0110 C.ar    
   5 C5            -2.4090     1.3491    -0.0108 C.ar    
   6 O6            -3.5356    -0.7546     0.0507 O.3     
   7 C7            -4.7274    -0.1809    -0.1903 C.2     
   8 C8            -4.9042     1.1648    -0.2058 C.2     
   9 C9            -3.7317     2.0233     0.0366 C.2     
  10 C10           -5.8886    -1.0482    -0.4487 C.2     
  11 N11           -7.1038    -0.4998    -0.6950 N.2     
  12 C12           -8.1532    -1.2286    -0.9276 C.2     
  13 N13           -8.0870    -2.5948    -0.9361 N.pl3   
  14 C14           -6.8760    -3.2183    -0.6918 C.2     
  15 C15           -5.7398    -2.4250    -0.4459 C.2     
  16 C16           -1.2278     2.0774    -0.0545 C.ar    
  17 C17           -9.0253    -3.5586    -1.1491 C.2     
  18 C18           -8.4392    -4.7764    -1.0459 C.2     
  19 C19           -7.0848    -4.5832    -0.7582 C.2     
  20 O20            1.1469     2.1119    -0.1635 O.3     
  21 C21            2.3595     1.3577    -0.2178 C.3     
  22 C22            3.5529     2.3138    -0.2677 C.3     
  23 N23            3.6241     3.0741     0.9872 N.3     
  24 C24            4.8877     3.8286     1.0769 C.3     
  25 C25            4.5200     5.3145     1.2727 C.3     
  26 C26            3.0821     5.2455     1.8512 C.3     
  27 C27            2.4984     4.0266     1.0942 C.3     
  28 F28            3.1076     5.0134     3.2306 F       
  29 F29            2.3659     6.4099     1.5541 F       
  30 N30           -3.8489     3.3071     0.2803 N.2     
  31 O31           -2.7115     4.0638     0.6527 O.3     
  32 H32            0.9596    -0.4963    -0.1625 H       
  33 H33           -1.1262    -1.7865    -0.0717 H       
  34 H34           -5.8776     1.5943    -0.3911 H       
  35 H35           -9.0998    -0.7449    -1.1182 H       
  36 H36           -4.7789    -2.8782    -0.2520 H       
  37 H37           -1.2538     3.1571    -0.0508 H       
  38 H38          -10.0685    -3.3812    -1.3651 H       
  39 H39           -8.9324    -5.7298    -1.1653 H       
  40 H40           -6.3424    -5.3542    -0.6145 H       
  41 H41            2.4355     0.7277     0.6684 H       
  42 H42            2.3581     0.7314    -1.1099 H       
  43 H43            4.4715     1.7417    -0.3986 H       
  44 H44            3.4318     3.0028    -1.1036 H       
  45 H45            5.4707     3.4757     1.9276 H       
  46 H46            5.4589     3.7061     0.1567 H       
  47 H47            5.1983     5.7892     1.9816 H       
  48 H48            4.5267     5.8420     0.3188 H       
  49 H49            2.1572     4.3237     0.1025 H       
  50 H50            1.6796     3.5841     1.6614 H       
  51 H51           -2.8964     4.9995     0.8115 H       
@<TRIPOS>BOND
   1    1    2 ar
   2    1   20 1
   3    1   16 ar
   4    2    3 ar
   5    2   32 1
   6    3    4 ar
   7    3   33 1
   8    4    5 ar
   9    4    6 1
  10    5   16 ar
  11    5    9 1
  12    6    7 1
  13    7    8 2
  14    7   10 1
  15    8    9 1
  16    8   34 1
  17    9   30 2
  18   10   11 1
  19   10   15 2
  20   11   12 2
  21   12   13 1
  22   12   35 1
  23   13   14 1
  24   13   17 1
  25   14   15 1
  26   14   19 2
  27   15   36 1
  28   16   37 1
  29   17   18 2
  30   17   38 1
  31   18   19 1
  32   18   39 1
  33   19   40 1
  34   20   21 1
  35   21   22 1
  36   21   41 1
  37   21   42 1
  38   22   23 1
  39   22   43 1
  40   22   44 1
  41   23   24 1
  42   23   27 1
  43   24   25 1
  44   24   45 1
  45   24   46 1
  46   25   26 1
  47   25   47 1
  48   25   48 1
  49   26   27 1
  50   26   28 1
  51   26   29 1
  52   27   49 1
  53   27   50 1
  54   30   31 1
  55   31   51 1

#	End of record

