#	Name: ASD03240693
#	Creating user name:	WinNT
#	Creation time:	15. 06. 2019 20:35

#	Modifying user name:	WinNT
#	Modification time:	15. 06. 2019 20:35

#	Program:	/corina/corina34_cracker 3.40 0067  02.08.2006

@<TRIPOS>MOLECULE
ASD03240693
  62   68    0    0    0
SMALL
NO_CHARGES


@<TRIPOS>ATOM
   1 C1            -0.1736     1.1825    -0.0623 C.3     
   2 C2             0.3878    -0.2466    -0.1481 C.3     
   3 C3             1.6983     0.3826    -0.6496 C.3     
   4 C4             1.2795     1.6594     0.0981 C.3     
   5 N5            -0.8095     1.6405    -1.3049 N.3     
   6 C6             1.7544     0.5526    -2.1690 C.3     
   7 O7             2.8710    -0.2351    -0.1153 O.3     
   8 C8            -1.0263     1.4239     1.1565 C.ar    
   9 C9            -2.0593     2.3427     1.1036 C.ar    
  10 C10           -2.8438     2.5679     2.2160 C.ar    
  11 C11           -2.5936     1.8670     3.3958 C.ar    
  12 C12           -1.5506     0.9419     3.4429 C.ar    
  13 C13           -0.7765     0.7218     2.3221 C.ar    
  14 C14           -5.8955     5.0979     7.2376 C.2     
  15 N15           -6.2191     4.1252     8.1080 N.2     
  16 C16           -5.8114     2.8919     7.9533 C.2     
  17 C17           -4.9790     2.5587     6.7993 C.ar    
  18 C18           -4.6425     3.5841     5.8898 C.ar    
  19 N19           -5.1194     4.8572     6.1363 N.pl3   
  20 C20           -4.5128     1.2585     6.5795 C.ar    
  21 C21           -3.7251     1.0301     5.4556 C.ar    
  22 C22           -3.4315     2.1042     4.5935 C.ar    
  23 N23           -3.8917     3.3230     4.8342 N.ar    
  24 N24           -4.9698     6.0653     5.4445 N.2     
  25 C25           -5.6215     7.0041     6.0876 C.2     
  26 C26           -6.2114     6.4497     7.2165 C.2     
  27 C27           -3.2010    -0.3269     5.1695 C.ar    
  28 C28           -2.5437    -1.0474     6.1655 C.ar    
  29 C29           -2.0583    -2.3103     5.8935 C.ar    
  30 C30           -2.2227    -2.8612     4.6353 C.ar    
  31 C31           -2.8738    -2.1507     3.6429 C.ar    
  32 C32           -3.3688    -0.8895     3.9052 C.ar    
  33 C33           -5.7112     8.4501     5.6726 C.3     
  34 C34           -6.9303     8.8752     4.8516 C.3     
  35 C35           -6.8068     9.3029     6.3154 C.3     
  36 H36            0.4818    -0.7377     0.8205 H       
  37 H37           -0.1110    -0.8678    -0.8920 H       
  38 H38            1.5006     2.5770    -0.4470 H       
  39 H39            1.6173     1.6895     1.1340 H       
  40 H40           -1.6437     1.1081    -1.5017 H       
  41 H41           -1.0119     2.6281    -1.2647 H       
  42 H42            1.0080     1.2833    -2.4807 H       
  43 H43            2.7461     0.8997    -2.4594 H       
  44 H44            1.5492    -0.4040    -2.6495 H       
  45 H45            3.6985     0.1563    -0.4271 H       
  46 H46           -2.2518     2.8851     0.1897 H       
  47 H47           -3.6497     3.2857     2.1736 H       
  48 H48           -1.3518     0.3964     4.3535 H       
  49 H49            0.0287     0.0029     2.3561 H       
  50 H50           -6.0863     2.1306     8.6683 H       
  51 H51           -4.7561     0.4570     7.2612 H       
  52 H52           -6.8099     6.9754     7.9458 H       
  53 H53           -2.4142    -0.6180     7.1479 H       
  54 H54           -1.5489    -2.8695     6.6643 H       
  55 H55           -1.8409    -3.8498     4.4269 H       
  56 H56           -2.9989    -2.5857     2.6623 H       
  57 H57           -3.8809    -0.3375     3.1309 H       
  58 H58           -4.7607     8.9352     5.4504 H       
  59 H59           -6.7819     9.6402     4.0895 H       
  60 H60           -7.6674     8.1090     4.6116 H       
  61 H61           -7.4628     8.8181     7.0384 H       
  62 H62           -6.5773    10.3493     6.5163 H       
@<TRIPOS>BOND
   1    1    2 1
   2    1    4 1
   3    1    5 1
   4    1    8 1
   5    2    3 1
   6    2   36 1
   7    2   37 1
   8    3    4 1
   9    3    6 1
  10    3    7 1
  11    4   38 1
  12    4   39 1
  13    5   40 1
  14    5   41 1
  15    6   42 1
  16    6   43 1
  17    6   44 1
  18    7   45 1
  19    8    9 ar
  20    8   13 ar
  21    9   10 ar
  22    9   46 1
  23   10   11 ar
  24   10   47 1
  25   11   12 ar
  26   11   22 1
  27   12   13 ar
  28   12   48 1
  29   13   49 1
  30   14   15 1
  31   14   19 1
  32   14   26 2
  33   15   16 2
  34   16   17 1
  35   16   50 1
  36   17   18 ar
  37   17   20 ar
  38   18   19 1
  39   18   23 ar
  40   19   24 1
  41   20   21 ar
  42   20   51 1
  43   21   22 ar
  44   21   27 1
  45   22   23 ar
  46   24   25 2
  47   25   26 1
  48   25   33 1
  49   26   52 1
  50   27   28 ar
  51   27   32 ar
  52   28   29 ar
  53   28   53 1
  54   29   30 ar
  55   29   54 1
  56   30   31 ar
  57   30   55 1
  58   31   32 ar
  59   31   56 1
  60   32   57 1
  61   33   34 1
  62   33   35 1
  63   33   58 1
  64   34   35 1
  65   34   59 1
  66   34   60 1
  67   35   61 1
  68   35   62 1

#	End of record

