#	Name: ASD03430192
#	Creating user name:	WinNT
#	Creation time:	15. 06. 2019 20:40

#	Modifying user name:	WinNT
#	Modification time:	15. 06. 2019 20:40

#	Program:	/corina/corina34_cracker 3.40 0067  02.08.2006

@<TRIPOS>MOLECULE
ASD03430192
  62   68    0    0    0
SMALL
NO_CHARGES


@<TRIPOS>ATOM
   1 C1             0.0552     1.3567    -0.3818 C.ar    
   2 C2            -1.1399     2.0330    -0.2670 C.ar    
   3 C3            -2.3276     1.3348    -0.2206 C.ar    
   4 C4            -2.3291    -0.0570    -0.2788 C.ar    
   5 C5            -1.1205    -0.7308    -0.4025 C.ar    
   6 C6             0.0792    -0.0303    -0.4580 C.ar    
   7 O7            -3.5964    -0.5516    -0.1866 O.3     
   8 C8            -3.7668     1.7630    -0.1250 C.3     
   9 C9            -4.5382     0.4910    -0.5040 C.3     
  10 C10           -4.6049     3.5477     1.0724 C.ar    
  11 C11           -4.1302     2.2497     1.2463 C.ar    
  12 C12           -4.0843     2.9034    -1.0492 C.2     
  13 N13           -4.5655     3.8993    -0.2790 N.am    
  14 O14           -3.9367     2.9241    -2.2529 O.2     
  15 C15           -4.0766     1.6860     2.5011 C.ar    
  16 C16           -4.4959     2.4086     3.6043 C.ar    
  17 C17           -4.9687     3.6980     3.4434 C.ar    
  18 C18           -5.0246     4.2674     2.1879 C.ar    
  19 C19           -4.9979     5.1990    -0.7986 C.3     
  20 C20            1.4938     1.8315    -0.4444 C.3     
  21 C21            2.2738     0.5255    -0.1626 C.3     
  22 O22            1.3535    -0.4931    -0.5893 O.3     
  23 C23           -3.8294     6.1507    -0.8068 C.ar    
  24 C24           -3.0164     6.2335    -1.9232 C.ar    
  25 C25           -1.9452     7.1027    -1.9372 C.ar    
  26 C26           -1.6826     7.8998    -0.8219 C.ar    
  27 C27           -2.5070     7.8117     0.3009 C.ar    
  28 C28           -3.5779     6.9419     0.3000 C.ar    
  29 C29           -0.5361     8.8332    -0.8297 C.2     
  30 N30           -0.6536    10.0497    -0.2617 N.am    
  31 O31            0.5126     8.5033    -1.3484 O.2     
  32 C32            0.5070    10.9470    -0.1461 C.3     
  33 C33            0.1129    12.3210    -0.6999 C.3     
  34 O34           -1.0919    12.7564    -0.0654 O.3     
  35 C35           -2.2209    11.9150    -0.3130 C.3     
  36 C36           -1.9475    10.5224     0.2555 C.3     
  37 H37           -1.1460     3.1116    -0.2129 H       
  38 H38           -1.1127    -1.8094    -0.4556 H       
  39 H39           -4.7775     0.4859    -1.5674 H       
  40 H40           -5.4418     0.3927     0.0977 H       
  41 H41           -3.7073     0.6786     2.6246 H       
  42 H42           -4.4544     1.9664     4.5887 H       
  43 H43           -5.2960     4.2619     4.3044 H       
  44 H44           -5.3949     5.2750     2.0700 H       
  45 H45           -5.3744     5.0772    -1.8143 H       
  46 H46           -5.7882     5.5994    -0.1638 H       
  47 H47            1.7324     2.2220    -1.4336 H       
  48 H48            1.6917     2.5773     0.3255 H       
  49 H49            3.1906     0.4887    -0.7510 H       
  50 H50            2.4920     0.4279     0.9009 H       
  51 H51           -3.2207     5.6162    -2.7855 H       
  52 H52           -1.3109     7.1659    -2.8090 H       
  53 H53           -2.3093     8.4258     1.1671 H       
  54 H54           -4.2165     6.8727     1.1682 H       
  55 H55            0.7947    11.0420     0.9010 H       
  56 H56            1.3408    10.5447    -0.7214 H       
  57 H57            0.9097    13.0370    -0.4985 H       
  58 H58           -0.0481    12.2475    -1.7755 H       
  59 H59           -3.1030    12.3388     0.1668 H       
  60 H60           -2.3904    11.8400    -1.3872 H       
  61 H61           -2.7391     9.8388    -0.0512 H       
  62 H62           -1.9057    10.5719     1.3436 H       
@<TRIPOS>BOND
   1    1    6 ar
   2    1   20 1
   3    1    2 ar
   4    2    3 ar
   5    2   37 1
   6    3    4 ar
   7    3    8 1
   8    4    5 ar
   9    4    7 1
  10    5    6 ar
  11    5   38 1
  12    6   22 1
  13    7    9 1
  14    8    9 1
  15    8   11 1
  16    8   12 1
  17    9   39 1
  18    9   40 1
  19   10   11 ar
  20   10   13 1
  21   10   18 ar
  22   11   15 ar
  23   12   13 am
  24   12   14 2
  25   13   19 1
  26   15   16 ar
  27   15   41 1
  28   16   17 ar
  29   16   42 1
  30   17   18 ar
  31   17   43 1
  32   18   44 1
  33   19   23 1
  34   19   45 1
  35   19   46 1
  36   20   21 1
  37   20   47 1
  38   20   48 1
  39   21   22 1
  40   21   49 1
  41   21   50 1
  42   23   24 ar
  43   23   28 ar
  44   24   25 ar
  45   24   51 1
  46   25   26 ar
  47   25   52 1
  48   26   27 ar
  49   26   29 1
  50   27   28 ar
  51   27   53 1
  52   28   54 1
  53   29   30 am
  54   29   31 2
  55   30   32 1
  56   30   36 1
  57   32   33 1
  58   32   55 1
  59   32   56 1
  60   33   34 1
  61   33   57 1
  62   33   58 1
  63   34   35 1
  64   35   36 1
  65   35   59 1
  66   35   60 1
  67   36   61 1
  68   36   62 1

#	End of record

