#	Name: ASD09740094
#	Creating user name:	WinNT
#	Creation time:	15. 06. 2019 21:22

#	Modifying user name:	WinNT
#	Modification time:	15. 06. 2019 21:22

#	Program:	/corina/corina34_cracker 3.40 0067  02.08.2006

@<TRIPOS>MOLECULE
ASD09740094
  44   46    0    0    0
SMALL
NO_CHARGES


@<TRIPOS>ATOM
   1 O1            -0.0144     1.2085     0.0087 O.3     
   2 N2             0.0021    -0.0041     0.0020 N.2     
   3 C3             1.2414     1.6827    -0.0008 C.2     
   4 N4             2.0457     0.6355    -0.0141 N.2     
   5 C5             1.2344    -0.4424    -0.0121 C.2     
   6 C6             1.6617    -1.8646    -0.0234 C.ar    
   7 C7             1.6459     3.1031     0.0023 C.ar    
   8 C8             3.0163    -2.2068    -0.0377 C.ar    
   9 C9             0.7205    -2.8965    -0.0141 C.ar    
  10 C10            1.1608    -4.2051    -0.0247 C.ar    
  11 N11            2.4493    -4.4854    -0.0432 N.ar    
  12 C12            3.3700    -3.5409    -0.0474 C.ar    
  13 C13            0.6748     4.1074     0.0167 C.ar    
  14 C14            1.0582     5.4347     0.0199 C.ar    
  15 C15            2.4113     5.7692     0.0089 C.ar    
  16 C16            3.3755     4.7717    -0.0059 C.ar    
  17 C17            2.9994     3.4450    -0.0034 C.ar    
  18 C18            0.1557    -5.3279    -0.0143 C.3     
  19 O19           -1.1656    -4.7842     0.0060 O.3     
  20 O20            0.1155     6.4148     0.0335 O.3     
  21 C21           -2.1588     7.2318     0.0583 C.3     
  22 C22           -1.2519     5.9997     0.0438 C.3     
  23 O23            2.7869     7.0750     0.0121 O.3     
  24 C24            4.4164     8.8597     0.0060 C.3     
  25 C25            4.1898     7.3466     0.0002 C.3     
  26 H26            3.7754    -1.4386    -0.0415 H       
  27 H27           -0.3363    -2.6741     0.0015 H       
  28 H28            4.4145    -3.8150    -0.0628 H       
  29 H29           -0.3732     3.8468     0.0249 H       
  30 H30            4.4229     5.0349    -0.0148 H       
  31 H31            3.7520     2.6705    -0.0149 H       
  32 H32            0.2837    -5.9383    -0.9082 H       
  33 H33            0.3087    -5.9443     0.8716 H       
  34 H34           -1.8654    -5.4515     0.0136 H       
  35 H35           -1.9523     7.8245     0.9495 H       
  36 H36           -1.9685     7.8336    -0.8304 H       
  37 H37           -3.2018     6.9152     0.0662 H       
  38 H38           -1.4584     5.4070    -0.8474 H       
  39 H39           -1.4422     5.3980     0.9325 H       
  40 H40            5.4865     9.0669    -0.0031 H       
  41 H41            3.9536     9.2997    -0.8774 H       
  42 H42            3.9705     9.2905     0.9024 H       
  43 H43            4.6525     6.9066     0.8836 H       
  44 H44            4.6357     6.9158    -0.8962 H       
@<TRIPOS>BOND
   1    1    2 1
   2    1    3 1
   3    2    5 2
   4    3    4 2
   5    3    7 1
   6    4    5 1
   7    5    6 1
   8    6    8 ar
   9    6    9 ar
  10    7   13 ar
  11    7   17 ar
  12    8   12 ar
  13    8   26 1
  14    9   10 ar
  15    9   27 1
  16   10   11 ar
  17   10   18 1
  18   11   12 ar
  19   12   28 1
  20   13   14 ar
  21   13   29 1
  22   14   15 ar
  23   14   20 1
  24   15   16 ar
  25   15   23 1
  26   16   17 ar
  27   16   30 1
  28   17   31 1
  29   18   19 1
  30   18   32 1
  31   18   33 1
  32   19   34 1
  33   20   22 1
  34   21   22 1
  35   21   35 1
  36   21   36 1
  37   21   37 1
  38   22   38 1
  39   22   39 1
  40   23   25 1
  41   24   25 1
  42   24   40 1
  43   24   41 1
  44   24   42 1
  45   25   43 1
  46   25   44 1

#	End of record

