#	Name: ASD06170298
#	Creating user name:	WinNT
#	Creation time:	15. 06. 2019 21:05

#	Modifying user name:	WinNT
#	Modification time:	15. 06. 2019 21:05

#	Program:	/corina/corina34_cracker 3.40 0067  02.08.2006

@<TRIPOS>MOLECULE
ASD06170298
  72   76    0    0    0
SMALL
NO_CHARGES


@<TRIPOS>ATOM
   1 N1             0.0009     1.2853     0.1413 N.am    
   2 N2             0.0219    -0.0980     0.3430 N.pl3   
   3 C3             1.2654    -0.5727     0.1381 C.2     
   4 C4             2.0875     0.4839    -0.2018 C.2     
   5 C5             1.2436     1.6893    -0.1945 C.2     
   6 C6             3.5213     0.4174    -0.5093 C.2     
   7 O7             4.1013    -0.6519    -0.4780 O.2     
   8 N8             4.1953     1.5407    -0.8263 N.am    
   9 C9            -1.1369    -0.9106     0.7212 C.3     
  10 C10            1.6887    -2.0139     0.2597 C.3     
  11 C11            5.5892     1.5077    -0.9561 C.ar    
  12 C12            6.2239     0.3316    -1.3327 C.ar    
  13 C13            7.6001     0.3002    -1.4610 C.ar    
  14 C14            8.3467     1.4454    -1.2132 C.ar    
  15 C15            7.7117     2.6195    -0.8367 C.ar    
  16 C16            6.3365     2.6529    -0.7139 C.ar    
  17 O17            9.7005     1.4150    -1.3393 O.3     
  18 N18           11.2657     1.2922    -5.1530 N.ar    
  19 C19           12.1152     1.3985    -4.1243 C.ar    
  20 C20           11.6186     1.4438    -2.7987 C.ar    
  21 C21           10.2224     1.3756    -2.5897 C.ar    
  22 C22            9.4044     1.2670    -3.7008 C.ar    
  23 C23            9.9677     1.2277    -4.9698 C.ar    
  24 O24            1.5971     2.8270    -0.4425 O.2     
  25 C25           -1.1216     2.1110     0.2616 C.ar    
  26 C26           -1.9867     1.9571     1.3371 C.ar    
  27 C27           12.5108     1.5543    -1.7222 C.ar    
  28 C28           13.8500     1.6175    -1.9561 C.ar    
  29 C29           14.3510     1.5736    -3.2603 C.ar    
  30 C30           13.5012     1.4659    -4.3378 C.ar    
  31 C31           16.5221     1.7498    -2.3089 C.3     
  32 O32           15.6920     1.6384    -3.4668 O.3     
  33 C33           -1.7507    -1.5380    -0.5321 C.3     
  34 C34           -2.9609    -2.3866    -0.1372 C.3     
  35 C35           -3.0939     2.7744     1.4532 C.ar    
  36 C36           -3.3419     3.7448     0.4998 C.ar    
  37 C37           -2.4824     3.9007    -0.5723 C.ar    
  38 C38           -1.3703     3.0904    -0.6912 C.ar    
  39 F39            8.2188    -0.8438    -1.8269 F       
  40 O40           -2.1654    -0.5047    -1.4278 O.3     
  41 N41           -3.4777    -3.0839    -1.3223 N.3     
  42 C42           -4.6430    -3.9105    -0.9804 C.3     
  43 H43            3.7148     2.3719    -0.9646 H       
  44 H44           -0.8206    -1.6988     1.4044 H       
  45 H45           -1.8782    -0.2800     1.2121 H       
  46 H46            1.5705    -2.5098    -0.7037 H       
  47 H47            2.7335    -2.0610     0.5669 H       
  48 H48            1.0683    -2.5132     1.0039 H       
  49 H49            5.6428    -0.5583    -1.5248 H       
  50 H50            8.2925     3.5093    -0.6435 H       
  51 H51            5.8424     3.5688    -0.4250 H       
  52 H52            8.3324     1.2119    -3.5816 H       
  53 H53            9.3196     1.1424    -5.8296 H       
  54 H54           -1.7940     1.1989     2.0817 H       
  55 H55           12.1359     1.5895    -0.7100 H       
  56 H56           14.5335     1.7029    -1.1243 H       
  57 H57           13.8983     1.4328    -5.3416 H       
  58 H58           16.3663     0.8839    -1.6655 H       
  59 H59           17.5676     1.7924    -2.6141 H       
  60 H60           16.2654     2.6583    -1.7640 H       
  61 H61           -1.0094    -2.1685    -1.0230 H       
  62 H62           -2.6622    -3.1184     0.6135 H       
  63 H63           -3.7384    -1.7421     0.2730 H       
  64 H64           -3.7671     2.6552     2.2894 H       
  65 H65           -4.2088     4.3822     0.5925 H       
  66 H66           -2.6789     4.6595    -1.3152 H       
  67 H67           -0.6995     3.2126    -1.5287 H       
  68 H68           -2.8261     0.0959    -1.0565 H       
  69 H69           -3.7014    -2.4302    -2.0576 H       
  70 H70           -5.0055    -4.4155    -1.8758 H       
  71 H71           -4.3559    -4.6528    -0.2356 H       
  72 H72           -5.4321    -3.2765    -0.5761 H       
@<TRIPOS>BOND
   1    1    2 1
   2    1    5 am
   3    1   25 1
   4    2    3 1
   5    2    9 1
   6    3    4 2
   7    3   10 1
   8    4    5 1
   9    4    6 1
  10    5   24 2
  11    6    7 2
  12    6    8 am
  13    8   11 1
  14    8   43 1
  15    9   33 1
  16    9   44 1
  17    9   45 1
  18   10   46 1
  19   10   47 1
  20   10   48 1
  21   11   12 ar
  22   11   16 ar
  23   12   13 ar
  24   12   49 1
  25   13   14 ar
  26   13   39 1
  27   14   15 ar
  28   14   17 1
  29   15   16 ar
  30   15   50 1
  31   16   51 1
  32   17   21 1
  33   18   19 ar
  34   18   23 ar
  35   19   20 ar
  36   19   30 ar
  37   20   21 ar
  38   20   27 ar
  39   21   22 ar
  40   22   23 ar
  41   22   52 1
  42   23   53 1
  43   25   26 ar
  44   25   38 ar
  45   26   35 ar
  46   26   54 1
  47   27   28 ar
  48   27   55 1
  49   28   29 ar
  50   28   56 1
  51   29   30 ar
  52   29   32 1
  53   30   57 1
  54   31   32 1
  55   31   58 1
  56   31   59 1
  57   31   60 1
  58   33   34 1
  59   33   40 1
  60   33   61 1
  61   34   41 1
  62   34   62 1
  63   34   63 1
  64   35   36 ar
  65   35   64 1
  66   36   37 ar
  67   36   65 1
  68   37   38 ar
  69   37   66 1
  70   38   67 1
  71   40   68 1
  72   41   42 1
  73   41   69 1
  74   42   70 1
  75   42   71 1
  76   42   72 1

#	End of record

