#	Name: ASD03950036
#	Creating user name:	WinNT
#	Creation time:	15. 06. 2019 20:48

#	Modifying user name:	WinNT
#	Modification time:	15. 06. 2019 20:48

#	Program:	/corina/corina34_cracker 3.40 0067  02.08.2006

@<TRIPOS>MOLECULE
ASD03950036
  67   70    0    0    0
SMALL
NO_CHARGES


@<TRIPOS>ATOM
   1 N1            -0.0453     1.2499    -1.2757 N.pl3   
   2 N2            -0.0301    -0.1405    -1.1263 N.2     
   3 C3             1.1894    -0.5867    -1.2225 C.2     
   4 C4             2.0646     0.5604    -1.4510 C.ar    
   5 C5             3.4430     0.7039    -1.6301 C.ar    
   6 C6             3.9870     1.9646    -1.8317 C.ar    
   7 C7             3.1656     3.0930    -1.8566 C.ar    
   8 C8             1.7934     2.9673    -1.6796 C.ar    
   9 C9             1.2303     1.6939    -1.4753 C.ar    
  10 C10            0.9304     4.1635    -1.7059 C.2     
  11 O11           -0.2703     4.0504    -1.5507 O.2     
  12 N12            1.4728     5.3816    -1.9018 N.am    
  13 C13            5.4514     2.1140    -2.0217 C.ar    
  14 C14            6.0045     3.3764    -2.2246 C.ar    
  15 C15            7.3690     3.5096    -2.4010 C.ar    
  16 C16            8.1847     2.3898    -2.3764 C.ar    
  17 C17            7.6388     1.1355    -2.1753 C.ar    
  18 C18            6.2779     0.9930    -1.9920 C.ar    
  19 F19            7.9077     4.7327    -2.5979 F       
  20 N20            1.1580    -4.7948    -0.7625 N.am    
  21 C21            1.6958    -4.0313     0.3718 C.3     
  22 C22            1.2257    -2.5780     0.2551 C.3     
  23 C23            1.6203    -2.0270    -1.1170 C.3     
  24 C24            0.9353    -2.8457    -2.2136 C.3     
  25 C25            1.4021    -4.3020    -2.1250 C.3     
  26 S26            0.2989    -6.1879    -0.5104 S.o2    
  27 O27            0.4833    -6.9344    -1.7054 O.2     
  28 O28            0.7758    -6.6728     0.7373 O.2     
  29 C29           -1.4232    -5.6373    -0.3632 C.3     
  30 C30           -2.3273    -6.8485    -0.1252 C.3     
  31 N31           -3.7219    -6.4026    -0.0060 N.3     
  32 C32           -4.6430    -7.5470    -0.0144 C.3     
  33 C33           -4.7806    -8.0805    -1.4417 C.3     
  34 C34           -3.9115    -5.5830     1.1983 C.3     
  35 C35           -5.2340    -4.8210     1.0935 C.3     
  36 H36           -0.8370     1.8096    -1.2463 H       
  37 H37            4.0841    -0.1650    -1.6113 H       
  38 H38            3.5995     4.0695    -2.0139 H       
  39 H39            2.4306     5.4719    -2.0255 H       
  40 H40            0.9053     6.1681    -1.9190 H       
  41 H41            5.3685     4.2491    -2.2444 H       
  42 H42            9.2503     2.4970    -2.5153 H       
  43 H43            8.2789     0.2659    -2.1571 H       
  44 H44            5.8539     0.0129    -1.8302 H       
  45 H45            1.3317    -4.4593     1.3058 H       
  46 H46            2.7851    -4.0657     0.3518 H       
  47 H47            0.1421    -2.5361     0.3661 H       
  48 H48            1.6952    -1.9800     1.0361 H       
  49 H49            2.7017    -2.0922    -1.2372 H       
  50 H50           -0.1455    -2.8013    -2.0794 H       
  51 H51            1.1982    -2.4382    -3.1898 H       
  52 H52            2.4674    -4.3585    -2.3486 H       
  53 H53            0.8443    -4.9087    -2.8384 H       
  54 H54           -1.5134    -4.9464     0.4749 H       
  55 H55           -1.7238    -5.1346    -1.2825 H       
  56 H56           -2.2372    -7.5395    -0.9634 H       
  57 H57           -2.0267    -7.3512     0.7940 H       
  58 H58           -4.2516    -8.3332     0.6312 H       
  59 H59           -5.6198    -7.2298     0.3507 H       
  60 H60           -5.2517    -7.3235    -2.0687 H       
  61 H61           -3.7932    -8.3173    -1.8379 H       
  62 H62           -5.3951    -8.9808    -1.4354 H       
  63 H63           -3.9322    -6.2277     2.0769 H       
  64 H64           -3.0892    -4.8731     1.2877 H       
  65 H65           -5.3309    -4.1430     1.9415 H       
  66 H66           -5.2508    -4.2479     0.1665 H       
  67 H67           -6.0627    -5.5290     1.0980 H       
@<TRIPOS>BOND
   1    1    2 1
   2    1    9 1
   3    1   36 1
   4    2    3 2
   5    3    4 1
   6    3   23 1
   7    4    5 ar
   8    4    9 ar
   9    5    6 ar
  10    5   37 1
  11    6    7 ar
  12    6   13 1
  13    7    8 ar
  14    7   38 1
  15    8    9 ar
  16    8   10 1
  17   10   11 2
  18   10   12 am
  19   12   39 1
  20   12   40 1
  21   13   14 ar
  22   13   18 ar
  23   14   15 ar
  24   14   41 1
  25   15   16 ar
  26   15   19 1
  27   16   17 ar
  28   16   42 1
  29   17   18 ar
  30   17   43 1
  31   18   44 1
  32   20   21 1
  33   20   25 1
  34   20   26 am
  35   21   22 1
  36   21   45 1
  37   21   46 1
  38   22   23 1
  39   22   47 1
  40   22   48 1
  41   23   24 1
  42   23   49 1
  43   24   25 1
  44   24   50 1
  45   24   51 1
  46   25   52 1
  47   25   53 1
  48   26   27 2
  49   26   28 2
  50   26   29 1
  51   29   30 1
  52   29   54 1
  53   29   55 1
  54   30   31 1
  55   30   56 1
  56   30   57 1
  57   31   32 1
  58   31   34 1
  59   32   33 1
  60   32   58 1
  61   32   59 1
  62   33   60 1
  63   33   61 1
  64   33   62 1
  65   34   35 1
  66   34   63 1
  67   34   64 1
  68   35   65 1
  69   35   66 1
  70   35   67 1

#	End of record

