#	Name: ASD01810536
#	Creating user name:	WinNT
#	Creation time:	15. 06. 2019 19:24

#	Modifying user name:	WinNT
#	Modification time:	15. 06. 2019 19:24

#	Program:	/corina/corina34_cracker 3.40 0067  02.08.2006

@<TRIPOS>MOLECULE
ASD01810536
  34   36    0    0    0
SMALL
NO_CHARGES


@<TRIPOS>ATOM
   1 C1            -0.0167     1.3798     0.0096 C.ar    
   2 C2             0.0021    -0.0041     0.0020 C.ar    
   3 C3             1.2044    -0.6844    -0.0132 C.ar    
   4 C4             2.3969     0.0223    -0.0208 C.ar    
   5 C5             2.3780     1.4188    -0.0131 C.ar    
   6 C6             1.1667     2.0926     0.0022 C.ar    
   7 N7             3.7356    -0.3620    -0.0357 N.am    
   8 C8             4.4959     0.7492    -0.0370 C.2     
   9 N9             3.7058     1.8393    -0.0236 N.am    
  10 C10            4.2319    -1.7403    -0.0471 C.3     
  11 O11            5.7126     0.7658    -0.0490 O.2     
  12 C12            5.0719    -1.9713    -1.3063 C.3     
  13 C13            5.6375    -3.3932    -1.2826 C.3     
  14 N14            6.4634    -3.5728    -0.0817 N.3     
  15 C15            5.6675    -3.4025     1.1405 C.3     
  16 C16            5.1028    -1.9809     1.1891 C.3     
  17 C17            7.1346    -4.8794    -0.0950 C.3     
  18 H18           -0.9605     1.9046     0.0170 H       
  19 H19           -0.9271    -0.5545     0.0083 H       
  20 H20            1.2151    -1.7643    -0.0187 H       
  21 H21            1.1480     3.1724     0.0078 H       
  22 H22            4.0095     2.7605    -0.0222 H       
  23 H23            3.3888    -2.4311    -0.0399 H       
  24 H24            4.4463    -1.8432    -2.1897 H       
  25 H25            5.8920    -1.2539    -1.3333 H       
  26 H26            4.8168    -4.1103    -1.2695 H       
  27 H27            6.2479    -3.5561    -2.1708 H       
  28 H28            4.8466    -4.1196     1.1422 H       
  29 H29            6.2996    -3.5721     2.0121 H       
  30 H30            5.9234    -1.2636     1.2014 H       
  31 H31            4.4992    -1.8597     2.0886 H       
  32 H32            7.7756    -4.9497    -0.9738 H       
  33 H33            7.7394    -4.9864     0.8054 H       
  34 H34            6.3867    -5.6718    -0.1266 H       
@<TRIPOS>BOND
   1    1    2 ar
   2    1    6 ar
   3    1   18 1
   4    2    3 ar
   5    2   19 1
   6    3    4 ar
   7    3   20 1
   8    4    5 ar
   9    4    7 1
  10    5    6 ar
  11    5    9 1
  12    6   21 1
  13    7    8 am
  14    7   10 1
  15    8    9 am
  16    8   11 2
  17    9   22 1
  18   10   12 1
  19   10   16 1
  20   10   23 1
  21   12   13 1
  22   12   24 1
  23   12   25 1
  24   13   14 1
  25   13   26 1
  26   13   27 1
  27   14   15 1
  28   14   17 1
  29   15   16 1
  30   15   28 1
  31   15   29 1
  32   16   30 1
  33   16   31 1
  34   17   32 1
  35   17   33 1
  36   17   34 1

#	End of record

