#	Name: ASD01910292
#	Creating user name:	WinNT
#	Creation time:	15. 06. 2019 19:55

#	Modifying user name:	WinNT
#	Modification time:	15. 06. 2019 19:55

#	Program:	/corina/corina34_cracker 3.40 0067  02.08.2006

@<TRIPOS>MOLECULE
ASD01910292
  43   46    0    0    0
SMALL
NO_CHARGES


@<TRIPOS>ATOM
   1 C1            -0.6652     2.2694     0.1891 C.ar    
   2 N2            -0.7921     0.9581     0.2558 N.ar    
   3 C3             0.2543     0.1561     0.3034 C.ar    
   4 C4             1.5372     0.6640     0.2854 C.ar    
   5 C5             1.7176     2.0478     0.2153 C.ar    
   6 C6             0.5818     2.8601     0.1663 C.ar    
   7 C7             3.0791     2.6390     0.1940 C.2     
   8 N8             3.3800     3.9208     0.1299 N.2     
   9 N9             4.6645     4.0250     0.1332 N.pl3   
  10 N10            5.1869     2.8502     0.1973 N.2     
  11 N11            4.2419     1.9735     0.2420 N.2     
  12 C12            5.4127     5.2830     0.0727 C.3     
  13 C13            6.2853     5.4191     1.3226 C.3     
  14 C14            7.0425     6.7482     1.2760 C.3     
  15 C15            7.9543     6.7689     0.0452 C.3     
  16 N16            7.1434     6.4943    -1.1488 N.am    
  17 C17            6.3061     5.2872    -1.1718 C.3     
  18 C18            7.1672     7.3337    -2.2030 C.2     
  19 C19            6.4498     6.9801    -3.4450 C.ar    
  20 O20            7.7789     8.3818    -2.1318 O.2     
  21 C21            5.7216     7.9520    -4.1345 C.ar    
  22 C22            5.0545     7.6168    -5.2932 C.ar    
  23 C23            5.1055     6.3174    -5.7743 C.ar    
  24 C24            5.8266     5.3485    -5.0934 C.ar    
  25 C25            6.5021     5.6742    -3.9369 C.ar    
  26 F26            4.4498     5.9941    -6.9105 F       
  27 H27           -1.5489     2.8888     0.1474 H       
  28 H28            0.1048    -0.9121     0.3575 H       
  29 H29            2.3893     0.0017     0.3253 H       
  30 H30            0.6783     3.9343     0.1115 H       
  31 H31            4.7152     6.1192     0.0231 H       
  32 H32            5.6541     5.3917     2.2108 H       
  33 H33            6.9987     4.5958     1.3588 H       
  34 H34            6.3300     7.5709     1.2148 H       
  35 H35            7.6457     6.8550     2.1776 H       
  36 H36            8.4208     7.7497    -0.0475 H       
  37 H37            8.7242     6.0042     0.1479 H       
  38 H38            6.9416     4.4016    -1.1683 H       
  39 H39            5.6850     5.2903    -2.0675 H       
  40 H40            5.6809     8.9643    -3.7604 H       
  41 H41            4.4907     8.3675    -5.8270 H       
  42 H42            5.8628     4.3378    -5.4723 H       
  43 H43            7.0638     4.9188    -3.4075 H       
@<TRIPOS>BOND
   1    1    2 ar
   2    1    6 ar
   3    1   27 1
   4    2    3 ar
   5    3    4 ar
   6    3   28 1
   7    4    5 ar
   8    4   29 1
   9    5    6 ar
  10    5    7 1
  11    6   30 1
  12    7    8 2
  13    7   11 1
  14    8    9 1
  15    9   10 1
  16    9   12 1
  17   10   11 2
  18   12   13 1
  19   12   17 1
  20   12   31 1
  21   13   14 1
  22   13   32 1
  23   13   33 1
  24   14   15 1
  25   14   34 1
  26   14   35 1
  27   15   16 1
  28   15   36 1
  29   15   37 1
  30   16   17 1
  31   16   18 am
  32   17   38 1
  33   17   39 1
  34   18   19 1
  35   18   20 2
  36   19   21 ar
  37   19   25 ar
  38   21   22 ar
  39   21   40 1
  40   22   23 ar
  41   22   41 1
  42   23   24 ar
  43   23   26 1
  44   24   25 ar
  45   24   42 1
  46   25   43 1

#	End of record

