#	Name: ASD02508327
#	Creating user name:	WinNT
#	Creation time:	15. 06. 2019 20:24

#	Modifying user name:	WinNT
#	Modification time:	15. 06. 2019 20:24

#	Program:	/corina/corina34_cracker 3.40 0067  02.08.2006

@<TRIPOS>MOLECULE
ASD02508327
  62   64    0    0    0
SMALL
NO_CHARGES


@<TRIPOS>ATOM
   1 C1             0.8283     0.9075    -0.1988 C.ar    
   2 C2             0.5076    -0.4355    -0.3497 C.ar    
   3 C3             1.5191    -1.3741    -0.5112 C.ar    
   4 C4             2.8393    -0.9693    -0.5212 C.ar    
   5 C5             3.1551     0.3687    -0.3701 C.ar    
   6 C6             2.1509     1.3055    -0.2096 C.ar    
   7 S7             4.8410     0.8808    -0.3828 S.o2    
   8 O8             5.0113     1.7288     0.7446 O.2     
   9 O9             5.6149    -0.2916    -0.5975 O.2     
  10 C10            5.0676     1.8941    -1.8063 C.ar    
  11 C11            4.8670     3.2596    -1.7202 C.ar    
  12 C12            5.0438     4.0567    -2.8342 C.ar    
  13 C13            5.4239     3.4855    -4.0416 C.ar    
  14 C14            5.6251     2.1139    -4.1246 C.ar    
  15 C15            5.4513     1.3230    -3.0058 C.ar    
  16 N16           -0.8287    -0.8415    -0.3387 N.am    
  17 C17           -1.2266    -2.0704    -1.0299 C.3     
  18 S18           -1.9634     0.0663     0.4556 S.o2    
  19 C19           -2.6610     1.1761    -0.7219 C.ar    
  20 O20           -3.0028    -0.8278     0.8291 O.2     
  21 O21           -1.2538     0.8672     1.3905 O.2     
  22 C22           -3.6998     0.7597    -1.5333 C.ar    
  23 C23           -4.2470     1.6304    -2.4570 C.ar    
  24 C24           -3.7557     2.9176    -2.5691 C.ar    
  25 C25           -2.7175     3.3343    -1.7571 C.ar    
  26 C26           -2.1732     2.4650    -0.8303 C.ar    
  27 C27           -4.3516     3.8665    -3.5768 C.3     
  28 C28           -1.0075    -3.2694    -0.1051 C.3     
  29 C29           -1.4230    -4.5528    -0.8270 C.3     
  30 C30            2.4999     2.7623    -0.0449 C.3     
  31 N31            5.6034     4.2901    -5.1721 N.am    
  32 C32            5.9405     5.5873    -5.0294 C.2     
  33 C33            6.0225     6.4820    -6.2393 C.3     
  34 O34            6.1777     6.0345    -3.9273 O.2     
  35 H35            0.0442     1.6402    -0.0775 H       
  36 H36            1.2732    -2.4191    -0.6285 H       
  37 H37            3.6261    -1.6984    -0.6467 H       
  38 H38            4.5714     3.7032    -0.7809 H       
  39 H39            4.8863     5.1230    -2.7665 H       
  40 H40            5.9207     1.6667    -5.0622 H       
  41 H41            5.6079     0.2563    -3.0697 H       
  42 H42           -2.2803    -2.0093    -1.3021 H       
  43 H43           -0.6251    -2.1916    -1.9308 H       
  44 H44           -4.0836    -0.2460    -1.4457 H       
  45 H45           -5.0581     1.3048    -3.0914 H       
  46 H46           -2.3335     4.3399    -1.8448 H       
  47 H47           -1.3620     2.7905    -0.1959 H       
  48 H48           -5.1737     4.4153    -3.1173 H       
  49 H49           -3.5877     4.5687    -3.9107 H       
  50 H50           -4.7246     3.3018    -4.4313 H       
  51 H51            0.0462    -3.3305     0.1670 H       
  52 H52           -1.6090    -3.1482     0.7957 H       
  53 H53           -2.4767    -4.4917    -1.0991 H       
  54 H54           -0.8215    -4.6741    -1.7278 H       
  55 H55           -1.2669    -5.4071    -0.1681 H       
  56 H56            2.5388     3.2395    -1.0241 H       
  57 H57            1.7418     3.2505     0.5674 H       
  58 H58            3.4716     2.8504     0.4411 H       
  59 H59            5.4853     3.9144    -6.0586 H       
  60 H60            5.7779     5.9079    -7.1330 H       
  61 H61            5.3159     7.3048    -6.1313 H       
  62 H62            7.0332     6.8803    -6.3287 H       
@<TRIPOS>BOND
   1    1    2 ar
   2    1    6 ar
   3    1   35 1
   4    2    3 ar
   5    2   16 1
   6    3    4 ar
   7    3   36 1
   8    4    5 ar
   9    4   37 1
  10    5    6 ar
  11    5    7 1
  12    6   30 1
  13    7    8 2
  14    7    9 2
  15    7   10 1
  16   10   11 ar
  17   10   15 ar
  18   11   12 ar
  19   11   38 1
  20   12   13 ar
  21   12   39 1
  22   13   14 ar
  23   13   31 1
  24   14   15 ar
  25   14   40 1
  26   15   41 1
  27   16   17 1
  28   16   18 am
  29   17   28 1
  30   17   42 1
  31   17   43 1
  32   18   19 1
  33   18   20 2
  34   18   21 2
  35   19   22 ar
  36   19   26 ar
  37   22   23 ar
  38   22   44 1
  39   23   24 ar
  40   23   45 1
  41   24   25 ar
  42   24   27 1
  43   25   26 ar
  44   25   46 1
  45   26   47 1
  46   27   48 1
  47   27   49 1
  48   27   50 1
  49   28   29 1
  50   28   51 1
  51   28   52 1
  52   29   53 1
  53   29   54 1
  54   29   55 1
  55   30   56 1
  56   30   57 1
  57   30   58 1
  58   31   32 am
  59   31   59 1
  60   32   33 1
  61   32   34 2
  62   33   60 1
  63   33   61 1
  64   33   62 1

#	End of record

