#	Name: ASD04882111
#	Creating user name:	WinNT
#	Creation time:	15. 06. 2019 20:54

#	Modifying user name:	WinNT
#	Modification time:	15. 06. 2019 20:54

#	Program:	/corina/corina34_cracker 3.40 0067  02.08.2006

@<TRIPOS>MOLECULE
ASD04882111
  79   83    0    0    0
SMALL
NO_CHARGES


@<TRIPOS>ATOM
   1 C1            -0.6756     1.8159    -0.0373 C.2     
   2 N2            -0.9472     0.5724    -0.3024 N.2     
   3 O3            -0.0009    -0.0140    -0.7675 O.3     
   4 C4             1.0831     0.7551    -0.8935 C.2     
   5 C5             0.7301     1.9993    -0.4305 C.2     
   6 C6             1.5557     3.2174    -0.3485 C.2     
   7 O7             2.2033     3.4467     0.6551 O.2     
   8 N8             1.5930     4.0773    -1.3857 N.am    
   9 C9             2.2892     5.2876    -1.2676 C.ar    
  10 C10            2.9263     5.8399    -2.3827 C.ar    
  11 C11            3.6171     7.0403    -2.2671 C.ar    
  12 C12            3.6764     7.6904    -1.0540 C.ar    
  13 C13            3.0415     7.1441     0.0645 C.ar    
  14 C14            2.3419     5.9391    -0.0503 C.ar    
  15 N15            2.8689     5.1862    -3.6109 N.3     
  16 C16            3.5988     3.9116    -3.5637 C.3     
  17 C17            3.4453     3.1889    -4.9040 C.3     
  18 N18            3.9581     4.0466    -5.9816 N.3     
  19 C19            3.2282     5.3212    -6.0288 C.3     
  20 C20            3.3817     6.0438    -4.6884 C.3     
  21 C21            3.9006     3.3908    -7.2135 C.ar    
  22 C22            4.7057     2.2838    -7.4513 C.ar    
  23 C23            3.7862     2.0916    -9.6538 C.ar    
  24 C24            3.0342     3.8405    -8.2015 C.ar    
  25 C25            4.6460     1.6377    -8.6701 C.ar    
  26 C26            2.9795     3.1895    -9.4185 C.ar    
  27 C27            5.6435     1.7892    -6.3803 C.3     
  28 C28            3.1051     7.8405     1.3635 C.2     
  29 N29            3.7759     9.0044     1.4721 N.am    
  30 O30            2.5523     7.3644     2.3363 O.2     
  31 C31            3.8391     9.6959     2.7620 C.3     
  32 C32            4.6542    10.9820     2.6119 C.3     
  33 C33            4.7201    11.7042     3.9591 C.3     
  34 N34            5.5006    12.9356     3.8154 N.am    
  35 C35            4.9789    14.1304     3.4880 C.2     
  36 C36            6.0718    15.1741     3.4191 C.3     
  37 C37            7.3784    14.3506     3.3445 C.3     
  38 C38            6.9517    13.0245     4.0164 C.3     
  39 O39            3.8031    14.3409     3.2781 O.2     
  40 C40           -1.6048     2.8508     0.5430 C.3     
  41 C41            2.4269     0.3405    -1.4351 C.3     
  42 H42            1.1379     3.8583    -2.2138 H       
  43 H43            4.1089     7.4642    -3.1301 H       
  44 H44            4.2144     8.6228    -0.9672 H       
  45 H45            1.8470     5.5164     0.8116 H       
  46 H46            4.6547     4.1040    -3.3731 H       
  47 H47            3.1926     3.2892    -2.7663 H       
  48 H48            4.0098     2.2568    -4.8813 H       
  49 H49            2.3920     2.9723    -5.0818 H       
  50 H50            3.6344     5.9435    -6.8261 H       
  51 H51            2.1723     5.1287    -6.2193 H       
  52 H52            2.8172     6.9760    -4.7111 H       
  53 H53            4.4350     6.2605    -4.5107 H       
  54 H54            3.7417     1.5845   -10.6064 H       
  55 H55            2.4037     4.6981    -8.0183 H       
  56 H56            5.2716     0.7771    -8.8556 H       
  57 H57            2.3092     3.5414   -10.1888 H       
  58 H58            5.1561     1.0012    -5.8062 H       
  59 H59            6.5481     1.3948    -6.8433 H       
  60 H60            5.9047     2.6136    -5.7169 H       
  61 H61            4.2169     9.3842     0.6961 H       
  62 H62            2.8298     9.9419     3.0922 H       
  63 H63            4.3146     9.0483     3.4986 H       
  64 H64            5.6634    10.7360     2.2817 H       
  65 H65            4.1787    11.6296     1.8754 H       
  66 H66            3.7109    11.9501     4.2893 H       
  67 H67            5.1957    11.0565     4.6957 H       
  68 H68            5.9567    15.7886     2.5263 H       
  69 H69            6.0631    15.7954     4.3147 H       
  70 H70            7.6791    14.1889     2.3093 H       
  71 H71            8.1760    14.8324     3.9100 H       
  72 H72            7.1844    13.0459     5.0810 H       
  73 H73            7.4512    12.1825     3.5372 H       
  74 H74           -1.5333     2.8342     1.6305 H       
  75 H75           -1.3242     3.8379     0.1755 H       
  76 H76           -2.6288     2.6288     0.2427 H       
  77 H77            2.3946    -0.7107    -1.7215 H       
  78 H78            2.6700     0.9474    -2.3073 H       
  79 H79            3.1880     0.4850    -0.6683 H       
@<TRIPOS>BOND
   1    1    2 2
   2    1    5 1
   3    1   40 1
   4    2    3 1
   5    3    4 1
   6    4    5 2
   7    4   41 1
   8    5    6 1
   9    6    7 2
  10    6    8 am
  11    8    9 1
  12    8   42 1
  13    9   10 ar
  14    9   14 ar
  15   10   11 ar
  16   10   15 1
  17   11   12 ar
  18   11   43 1
  19   12   13 ar
  20   12   44 1
  21   13   14 ar
  22   13   28 1
  23   14   45 1
  24   15   16 1
  25   15   20 1
  26   16   17 1
  27   16   46 1
  28   16   47 1
  29   17   18 1
  30   17   48 1
  31   17   49 1
  32   18   19 1
  33   18   21 1
  34   19   20 1
  35   19   50 1
  36   19   51 1
  37   20   52 1
  38   20   53 1
  39   21   22 ar
  40   21   24 ar
  41   22   25 ar
  42   22   27 1
  43   23   25 ar
  44   23   26 ar
  45   23   54 1
  46   24   26 ar
  47   24   55 1
  48   25   56 1
  49   26   57 1
  50   27   58 1
  51   27   59 1
  52   27   60 1
  53   28   29 am
  54   28   30 2
  55   29   31 1
  56   29   61 1
  57   31   32 1
  58   31   62 1
  59   31   63 1
  60   32   33 1
  61   32   64 1
  62   32   65 1
  63   33   34 1
  64   33   66 1
  65   33   67 1
  66   34   35 am
  67   34   38 1
  68   35   36 1
  69   35   39 2
  70   36   37 1
  71   36   68 1
  72   36   69 1
  73   37   38 1
  74   37   70 1
  75   37   71 1
  76   38   72 1
  77   38   73 1
  78   40   74 1
  79   40   75 1
  80   40   76 1
  81   41   77 1
  82   41   78 1
  83   41   79 1

#	End of record

