#	Name: ASD03240150
#	Creating user name:	WinNT
#	Creation time:	15. 06. 2019 20:34

#	Modifying user name:	WinNT
#	Modification time:	15. 06. 2019 20:34

#	Program:	/corina/corina34_cracker 3.40 0067  02.08.2006

@<TRIPOS>MOLECULE
ASD03240150
  71   77    0    0    0
SMALL
NO_CHARGES


@<TRIPOS>ATOM
   1 C1            -0.0168     1.3910     0.0097 C.ar    
   2 C2             0.0021    -0.0041     0.0020 C.ar    
   3 C3             1.1927     2.0899     0.0019 C.ar    
   4 C4             2.3782     1.3580    -0.0134 C.ar    
   5 C5             2.3110    -0.0454    -0.0203 C.ar    
   6 N6             1.1389    -0.6661    -0.0120 N.ar    
   7 C7             3.5613    -0.8393    -0.0365 C.ar    
   8 C8             3.6899     2.0492    -0.0227 C.ar    
   9 C9             3.9386     3.0656    -0.9436 C.ar    
  10 C10            5.1614     3.7054    -0.9476 C.ar    
  11 C11            6.1392     3.3397    -0.0401 C.ar    
  12 C12            5.8981     2.3318     0.8761 C.ar    
  13 C13            4.6770     1.6889     0.8933 C.ar    
  14 C14            3.6292    -2.0525     0.6483 C.ar    
  15 C15            4.7966    -2.7879     0.6291 C.ar    
  16 C16            5.8982    -2.3241    -0.0675 C.ar    
  17 C17            5.8370    -1.1215    -0.7487 C.ar    
  18 C18            4.6736    -0.3796    -0.7413 C.ar    
  19 C19            7.1703    -3.1319    -0.0840 C.3     
  20 C20           -1.3058     2.1232     0.0198 C.ar    
  21 N21            7.1466    -4.0593    -1.2231 N.3     
  22 C22            8.4578    -4.6925    -1.4134 C.3     
  23 C23            8.4377    -5.5367    -2.6897 C.3     
  24 C24            7.3465    -6.6045    -2.5724 C.3     
  25 C25            5.9987    -5.9209    -2.3264 C.3     
  26 C26            6.0896    -5.0656    -1.0606 C.3     
  27 N27            7.2834    -7.3785    -3.8146 N.pl3   
  28 C28            7.4829    -8.7226    -3.9175 C.ar    
  29 C29            7.3300    -9.0512    -5.2828 C.ar    
  30 C30            7.0266    -7.8044    -5.9735 C.2     
  31 N31            7.0028    -6.8552    -5.0814 N.2     
  32 N32            7.7677    -9.6952    -3.0565 N.ar    
  33 C33            7.9032   -10.9352    -3.4717 C.ar    
  34 N34            7.7675   -11.2811    -4.7409 N.ar    
  35 C35            7.4847   -10.3848    -5.6695 C.ar    
  36 C36            7.3322   -10.7916    -7.1125 C.3     
  37 N37           -2.4405     1.4366     0.0215 N.ar    
  38 C38           -3.6067     2.0589     0.0304 C.ar    
  39 C39           -3.6336     3.4456     0.0381 C.ar    
  40 C40           -2.4286     4.1325     0.0361 C.ar    
  41 N41           -1.2970     3.4494     0.0324 N.ar    
  42 H42           -0.9305    -0.5487     0.0080 H       
  43 H43            1.2085     3.1698     0.0072 H       
  44 H44            3.1760     3.3516    -1.6528 H       
  45 H45            5.3553     4.4928    -1.6609 H       
  46 H46            7.0948     3.8429    -0.0471 H       
  47 H47            6.6654     2.0503     1.5821 H       
  48 H48            4.4898     0.9021     1.6090 H       
  49 H49            2.7700    -2.4154     1.1927 H       
  50 H50            4.8505    -3.7273     1.1592 H       
  51 H51            6.7003    -0.7646    -1.2907 H       
  52 H52            4.6269     0.5590    -1.2734 H       
  53 H53            8.0249    -2.4620    -0.1786 H       
  54 H54            7.2532    -3.6980     0.8437 H       
  55 H55            9.2241    -3.9221    -1.4996 H       
  56 H56            8.6800    -5.3316    -0.5588 H       
  57 H57            8.2292    -4.8960    -3.5465 H       
  58 H58            9.4061    -6.0190    -2.8224 H       
  59 H59            7.5753    -7.2691    -1.7393 H       
  60 H60            5.7518    -5.2862    -3.1775 H       
  61 H61            5.2246    -6.6777    -2.1994 H       
  62 H62            6.3228    -5.7029    -0.2076 H       
  63 H63            5.1358    -4.5661    -0.8905 H       
  64 H64            6.8490    -7.6889    -7.0326 H       
  65 H65            8.1350   -11.7020    -2.7474 H       
  66 H66            6.2916   -11.0497    -7.3092 H       
  67 H67            7.6293    -9.9640    -7.7567 H       
  68 H68            7.9654   -11.6554    -7.3154 H       
  69 H69           -4.5274     1.4944     0.0314 H       
  70 H70           -4.5726     3.9791     0.0451 H       
  71 H71           -2.4151     5.2124     0.0415 H       
@<TRIPOS>BOND
   1    1    2 ar
   2    1    3 ar
   3    1   20 1
   4    2    6 ar
   5    2   42 1
   6    3    4 ar
   7    3   43 1
   8    4    5 ar
   9    4    8 1
  10    5    6 ar
  11    5    7 1
  12    7   14 ar
  13    7   18 ar
  14    8    9 ar
  15    8   13 ar
  16    9   10 ar
  17    9   44 1
  18   10   11 ar
  19   10   45 1
  20   11   12 ar
  21   11   46 1
  22   12   13 ar
  23   12   47 1
  24   13   48 1
  25   14   15 ar
  26   14   49 1
  27   15   16 ar
  28   15   50 1
  29   16   17 ar
  30   16   19 1
  31   17   18 ar
  32   17   51 1
  33   18   52 1
  34   19   21 1
  35   19   53 1
  36   19   54 1
  37   20   37 ar
  38   20   41 ar
  39   21   22 1
  40   21   26 1
  41   22   23 1
  42   22   55 1
  43   22   56 1
  44   23   24 1
  45   23   57 1
  46   23   58 1
  47   24   25 1
  48   24   27 1
  49   24   59 1
  50   25   26 1
  51   25   60 1
  52   25   61 1
  53   26   62 1
  54   26   63 1
  55   27   28 1
  56   27   31 1
  57   28   29 ar
  58   28   32 ar
  59   29   30 1
  60   29   35 ar
  61   30   31 2
  62   30   64 1
  63   32   33 ar
  64   33   34 ar
  65   33   65 1
  66   34   35 ar
  67   35   36 1
  68   36   66 1
  69   36   67 1
  70   36   68 1
  71   37   38 ar
  72   38   39 ar
  73   38   69 1
  74   39   40 ar
  75   39   70 1
  76   40   41 ar
  77   40   71 1

#	End of record

