#	Name: ASD00960112
#	Creating user name:	WinNT
#	Creation time:	15. 06. 2019 18:53

#	Modifying user name:	WinNT
#	Modification time:	15. 06. 2019 18:53

#	Program:	/corina/corina34_cracker 3.40 0067  02.08.2006

@<TRIPOS>MOLECULE
ASD00960112
  39   41    0    0    0
SMALL
NO_CHARGES


@<TRIPOS>ATOM
   1 C1             0.2893     1.5735    -0.0535 C.3     
   2 C2            -0.0772     0.0747     0.0223 C.3     
   3 O3            -0.3072    -0.3187    -1.3482 O.3     
   4 C4            -1.0268     0.7824    -1.9444 C.3     
   5 C5            -0.8927     0.7436    -3.4681 C.3     
   6 C6             1.0635    -0.7152     0.6105 C.2     
   7 C7             1.2907    -0.8912     1.9308 C.2     
   8 N8             2.0170    -1.3640    -0.1045 N.pl3   
   9 C9             2.8866    -1.9713     0.7642 C.2     
  10 C10            2.4504    -1.6882     2.0645 C.2     
  11 N11            2.2442    -1.5071    -1.4813 N.2     
  12 C12            3.2634    -2.2048    -1.9074 C.2     
  13 N13            4.1129    -2.7979    -1.0744 N.2     
  14 C14            3.9680    -2.7100     0.2375 C.2     
  15 N15            4.8644    -3.3349     1.0826 N.pl3   
  16 C16           -0.3498     2.0498    -1.3771 C.3     
  17 O17            1.7079     1.7406    -0.0938 O.3     
  18 C18            3.0734    -2.1308     3.3168 C.2     
  19 O19           -1.4596    -0.4702    -3.9653 O.3     
  20 O20            3.5611    -3.2432     3.3938 O.2     
  21 N21            3.1055    -1.3057     4.3819 N.am    
  22 O22           -1.3216     3.0670    -1.1263 O.3     
  23 *23           -0.8049     4.3781    -1.1743 Du      
  24 N24           -2.4388     0.7387    -1.5565 N.2     
  25 N25           -3.0727    -0.1449    -1.8408 N.1     
  26 N26           -3.7066    -1.0284    -2.1252 N.pl3   
  27 H27           -0.1340     2.1135     0.7935 H       
  28 H28           -0.9817    -0.0652     0.6142 H       
  29 H29           -1.4189     1.5944    -3.9009 H       
  30 H30            0.1614     0.7910    -3.7413 H       
  31 H31            0.6938    -0.4941     2.7385 H       
  32 H32            3.4208    -2.3033    -2.9713 H       
  33 H33            5.4197    -4.0581     0.7516 H       
  34 H34            4.9385    -3.0506     2.0070 H       
  35 H35            0.4163     2.4127    -2.0623 H       
  36 H36            1.9941     2.6631    -0.1419 H       
  37 H37           -1.4096    -0.5628    -4.9266 H       
  38 H38            2.7167    -0.4191     4.3206 H       
  39 H39            3.5174    -1.5984     5.2099 H       
@<TRIPOS>BOND
   1    1    2 1
   2    1   17 1
   3    1   16 1
   4    1   27 1
   5    2    3 1
   6    2    6 1
   7    2   28 1
   8    3    4 1
   9    4    5 1
  10    4   24 1
  11    4   16 1
  12    5   19 1
  13    5   29 1
  14    5   30 1
  15    6    7 2
  16    6    8 1
  17    7   10 1
  18    7   31 1
  19    8    9 1
  20    8   11 1
  21    9   10 2
  22    9   14 1
  23   10   18 1
  24   11   12 2
  25   12   13 1
  26   12   32 1
  27   13   14 2
  28   14   15 1
  29   15   33 1
  30   15   34 1
  31   16   22 1
  32   16   35 1
  33   17   36 1
  34   18   20 2
  35   18   21 am
  36   19   37 1
  37   21   38 1
  38   21   39 1
  39   22   23 1
  40   24   25 2
  41   25   26 2

#	End of record

