#	Name: ASD03091692
#	Creating user name:	WinNT
#	Creation time:	15. 06. 2019 20:31

#	Modifying user name:	WinNT
#	Modification time:	15. 06. 2019 20:31

#	Program:	/corina/corina34_cracker 3.40 0067  02.08.2006

@<TRIPOS>MOLECULE
ASD03091692
  41   43    0    0    0
SMALL
NO_CHARGES


@<TRIPOS>ATOM
   1 Cl1            0.0000     0.0000     0.0000 Cl      
   2 H2             0.0000     1.3700     0.0000 H       
   3 C3            14.5229    11.0231     6.5711 C.ar    
   4 C4            14.5418     9.6238     6.5634 C.ar    
   5 C5            15.7765     8.9376     6.5479 C.ar    
   6 C6            16.9684     9.6529     6.5403 C.ar    
   7 C7            16.9452    11.0379     6.5480 C.ar    
   8 C8            15.7554    11.7194     6.5630 C.ar    
   9 S9            12.8920     9.0114     6.5764 S.3     
  10 C10           12.2353    10.6386     6.5917 C.2     
  11 C11           13.2184    11.5441     6.5920 C.2     
  12 C12           10.8013    10.9614     6.6069 C.2     
  13 O13           10.4393    12.1227     6.6163 O.2     
  14 N14            9.8876     9.9707     6.6103 N.am    
  15 N15            6.9509     9.5475     8.4055 N.3     
  16 C16            7.9989    10.5202     8.0684 C.3     
  17 C17            8.4584    10.2923     6.6255 C.3     
  18 C18            7.6622     9.1237     6.0312 C.3     
  19 C19            6.1691     9.4709     6.0864 C.3     
  20 C20            5.7730     9.7209     7.5442 C.3     
  21 C21            7.4621     8.1721     8.3267 C.3     
  22 C22            7.9069     7.8775     6.8914 C.3     
  23 C23           15.8003     7.5058     6.5404 C.1     
  24 N24           15.8192     6.3700     6.5345 N.1     
  25 H25           17.9126     9.1288     6.5288 H       
  26 H26           17.8750    11.5873     6.5424 H       
  27 H27           15.7586    12.7994     6.5684 H       
  28 H28           13.0228    12.6062     6.6007 H       
  29 H29           10.1762     9.0446     6.6028 H       
  30 H30            7.6030    11.5308     8.1687 H       
  31 H31            8.8448    10.3921     8.7439 H       
  32 H32            8.2785    11.1929     6.0383 H       
  33 H33            7.9683     8.9476     5.0000 H       
  34 H34            5.9809    10.3687     5.4977 H       
  35 H35            5.5862     8.6410     5.6867 H       
  36 H36            5.0000     9.0108     7.8380 H       
  37 H37            5.3925    10.7370     7.6486 H       
  38 H38            8.3113     8.0606     9.0008 H       
  39 H39            6.6752     7.4747     8.6140 H       
  40 H40            7.3310     7.0413     6.4950 H       
  41 H41            8.9683     7.6296     6.8816 H       
@<TRIPOS>BOND
   1    1    2 1
   2    3    4 ar
   3    3    8 ar
   4    3   11 1
   5    4    5 ar
   6    4    9 1
   7    5    6 ar
   8    5   23 1
   9    6    7 ar
  10    6   25 1
  11    7    8 ar
  12    7   26 1
  13    8   27 1
  14    9   10 1
  15   10   11 2
  16   10   12 1
  17   11   28 1
  18   12   13 2
  19   12   14 am
  20   14   17 1
  21   14   29 1
  22   15   16 1
  23   15   20 1
  24   15   21 1
  25   16   17 1
  26   16   30 1
  27   16   31 1
  28   17   18 1
  29   17   32 1
  30   18   19 1
  31   18   22 1
  32   18   33 1
  33   19   20 1
  34   19   34 1
  35   19   35 1
  36   20   36 1
  37   20   37 1
  38   21   22 1
  39   21   38 1
  40   21   39 1
  41   22   40 1
  42   22   41 1
  43   23   24 3

#	End of record

