#	Name: ASD01813585
#	Creating user name:	WinNT
#	Creation time:	15. 06. 2019 19:30

#	Modifying user name:	WinNT
#	Modification time:	15. 06. 2019 19:30

#	Program:	/corina/corina34_cracker 3.40 0067  02.08.2006

@<TRIPOS>MOLECULE
ASD01813585
  50   53    0    0    0
SMALL
NO_CHARGES


@<TRIPOS>ATOM
   1 C1            -0.2787     0.5713     0.7383 C.ar    
   2 C2            -0.1657    -0.7872     0.4857 C.ar    
   3 C3             1.0738    -1.3812     0.3622 C.ar    
   4 C4             2.2301    -0.6138     0.4910 C.ar    
   5 C5             2.1141     0.7632     0.7466 C.ar    
   6 C6             0.8527     1.3513     0.8697 C.ar    
   7 N7             3.4743    -1.1962     0.3706 N.pl3   
   8 C8             4.6139    -0.5029     0.4870 C.2     
   9 C9             4.6266     0.8543     0.7380 C.2     
  10 C10            3.3444     1.5632     0.8806 C.2     
  11 O11            3.3021     2.7608     1.1021 O.2     
  12 C12            5.8989     1.5796     0.8599 C.2     
  13 O13            5.8983     2.9052     1.1051 O.3     
  14 O14            6.9519     0.9842     0.7395 O.2     
  15 C15            3.5526    -2.6347     0.1046 C.3     
  16 C16            3.4216    -2.8796    -1.3766 C.ar    
  17 N17            2.2233    -2.9695    -1.9169 N.ar    
  18 C18            2.0606    -3.1839    -3.2164 C.ar    
  19 C19            3.1649    -3.3213    -4.0550 C.ar    
  20 C20            4.4357    -3.2312    -3.5138 C.ar    
  21 C21            4.5606    -3.0011    -2.1511 C.ar    
  22 F22            1.1665    -2.7065     0.1168 F       
  23 F23            0.7409     2.6751     1.1150 F       
  24 C24            0.6927    -3.2784    -3.7804 C.ar    
  25 C25           -0.4171    -3.1423    -2.9473 C.ar    
  26 C26           -1.6878    -3.2306    -3.4739 C.ar    
  27 C27           -1.8635    -3.4550    -4.8344 C.ar    
  28 C28           -0.7587    -3.5915    -5.6669 C.ar    
  29 C29            0.5140    -3.4978    -5.1458 C.ar    
  30 N30           -3.1529    -3.5441    -5.3661 N.am    
  31 C31           -4.1406    -2.7720    -4.8714 C.2     
  32 C32           -5.5043    -2.7905    -5.5126 C.3     
  33 O33           -3.9319    -2.0622    -3.9103 O.2     
  34 H34           -1.2560     1.0221     0.8282 H       
  35 H35           -1.0578    -1.3875     0.3847 H       
  36 H36            5.5545    -1.0231     0.3812 H       
  37 H37            6.7596     3.3387     1.1770 H       
  38 H38            4.5122    -3.0169     0.4526 H       
  39 H39            2.7459    -3.1458     0.6301 H       
  40 H40            3.0312    -3.4961    -5.1124 H       
  41 H41            5.3104    -3.3340    -4.1388 H       
  42 H42            5.5382    -2.9252    -1.6984 H       
  43 H43           -0.2812    -2.9682    -1.8901 H       
  44 H44           -2.5477    -3.1256    -2.8290 H       
  45 H45           -0.8976    -3.7665    -6.7235 H       
  46 H46            1.3721    -3.6039    -5.7930 H       
  47 H47           -3.3370    -4.1617    -6.0911 H       
  48 H48           -5.5003    -3.4820    -6.3551 H       
  49 H49           -6.2453    -3.1130    -4.7812 H       
  50 H50           -5.7536    -1.7897    -5.8652 H       
@<TRIPOS>BOND
   1    1    2 ar
   2    1    6 ar
   3    1   34 1
   4    2    3 ar
   5    2   35 1
   6    3    4 ar
   7    3   22 1
   8    4    5 ar
   9    4    7 1
  10    5    6 ar
  11    5   10 1
  12    6   23 1
  13    7    8 1
  14    7   15 1
  15    8    9 2
  16    8   36 1
  17    9   10 1
  18    9   12 1
  19   10   11 2
  20   12   13 1
  21   12   14 2
  22   13   37 1
  23   15   16 1
  24   15   38 1
  25   15   39 1
  26   16   17 ar
  27   16   21 ar
  28   17   18 ar
  29   18   19 ar
  30   18   24 1
  31   19   20 ar
  32   19   40 1
  33   20   21 ar
  34   20   41 1
  35   21   42 1
  36   24   25 ar
  37   24   29 ar
  38   25   26 ar
  39   25   43 1
  40   26   27 ar
  41   26   44 1
  42   27   28 ar
  43   27   30 1
  44   28   29 ar
  45   28   45 1
  46   29   46 1
  47   30   31 am
  48   30   47 1
  49   31   32 1
  50   31   33 2
  51   32   48 1
  52   32   49 1
  53   32   50 1

#	End of record

