#	Name: ASD03731829
#	Creating user name:	WinNT
#	Creation time:	15. 06. 2019 20:46

#	Modifying user name:	WinNT
#	Modification time:	15. 06. 2019 20:46

#	Program:	/corina/corina34_cracker 3.40 0067  02.08.2006

@<TRIPOS>MOLECULE
ASD03731829
  33   34    0    0    0
SMALL
NO_CHARGES


@<TRIPOS>ATOM
   1 C1            -0.4038     1.1050    -1.9601 C.2     
   2 C2            -0.2822    -0.2732    -1.4500 C.ar    
   3 C3             0.9017    -0.9936    -1.6488 C.ar    
   4 C4             1.0102    -2.2833    -1.1692 C.ar    
   5 C5            -0.0529    -2.8655    -0.4914 C.ar    
   6 C6            -1.2312    -2.1522    -0.2920 C.ar    
   7 C7            -1.3466    -0.8625    -0.7614 C.ar    
   8 O8             0.5250     1.6175    -2.5544 O.2     
   9 N9            -1.5465     1.7946    -1.7724 N.am    
  10 S10           -1.6831     3.3423    -2.3452 S.o2    
  11 O11           -2.9852     3.7494    -1.9478 O.2     
  12 O12           -0.5262     4.0025    -1.8504 O.2     
  13 C13           -1.5937     3.1671    -4.1485 C.3     
  14 F14            1.9357    -0.4277    -2.3090 F       
  15 O15            0.0574    -4.1342    -0.0222 O.3     
  16 C16            1.2595    -4.7564    -0.1420 C.ar    
  17 C17            2.2109    -4.6287     0.8599 C.ar    
  18 C18            3.4329    -5.2628     0.7354 C.ar    
  19 C19            3.7072    -6.0238    -0.3878 C.ar    
  20 C20            2.7605    -6.1515    -1.3868 C.ar    
  21 C21            1.5352    -5.5250    -1.2637 C.ar    
  22 Cl22           4.6243    -5.1040     1.9880 Cl      
  23 Cl23          -2.5556    -2.8870     0.5563 Cl      
  24 H24            1.9227    -2.8405    -1.3216 H       
  25 H25           -2.2600    -0.3088    -0.6019 H       
  26 H26           -2.2889     1.3843    -1.3018 H       
  27 H27           -2.4101     2.5322    -4.4928 H       
  28 H28           -1.6764     4.1494    -4.6136 H       
  29 H29           -0.6408     2.7143    -4.4228 H       
  30 H30            1.9971    -4.0344     1.7359 H       
  31 H31            4.6626    -6.5183    -0.4838 H       
  32 H32            2.9771    -6.7455    -2.2624 H       
  33 H33            0.7944    -5.6293    -2.0426 H       
@<TRIPOS>BOND
   1    1    2 1
   2    1    8 2
   3    1    9 am
   4    2    3 ar
   5    2    7 ar
   6    3    4 ar
   7    3   14 1
   8    4    5 ar
   9    4   24 1
  10    5    6 ar
  11    5   15 1
  12    6    7 ar
  13    6   23 1
  14    7   25 1
  15    9   10 am
  16    9   26 1
  17   10   11 2
  18   10   12 2
  19   10   13 1
  20   13   27 1
  21   13   28 1
  22   13   29 1
  23   15   16 1
  24   16   17 ar
  25   16   21 ar
  26   17   18 ar
  27   17   30 1
  28   18   19 ar
  29   18   22 1
  30   19   20 ar
  31   19   31 1
  32   20   21 ar
  33   20   32 1
  34   21   33 1

#	End of record

