#	Name: ASD01418026
#	Creating user name:	WinNT
#	Creation time:	15. 06. 2019 19:20

#	Modifying user name:	WinNT
#	Modification time:	15. 06. 2019 19:20

#	Program:	/corina/corina34_cracker 3.40 0067  02.08.2006

@<TRIPOS>MOLECULE
ASD01418026
  86   91    0    0    0
SMALL
NO_CHARGES


@<TRIPOS>ATOM
   1 C1             1.3805     2.6062    -0.7390 C.3     
   2 C2             1.2695     1.1810    -0.2630 C.2     
   3 N3             2.7377     2.8562    -1.2454 N.pl3   
   4 C4             3.8704     2.7208    -0.4744 C.2     
   5 C5             3.9938     2.1672     0.8870 C.ar    
   6 C6             3.1091     1.2311     1.4351 C.ar    
   7 C7             1.9730     0.6720     0.7184 C.2     
   8 C8             3.1012     3.2391    -2.5106 C.ar    
   9 C9             4.5021     3.4933    -2.4856 C.ar    
  10 C10            4.9486     3.1582    -1.2023 C.2     
  11 C11            2.4044     3.3767    -3.6993 C.ar    
  12 C12            3.1268     3.7067    -4.8680 C.ar    
  13 C13            4.4814     4.0628    -4.7963 C.ar    
  14 C14            5.1794     3.9679    -3.6215 C.ar    
  15 C15            6.3678     3.2600    -0.7056 C.3     
  16 C16            6.8906     1.8629    -0.3657 C.3     
  17 C17            7.2454     3.8823    -1.7934 C.3     
  18 C18            8.6862     3.9857    -1.2891 C.3     
  19 C19            9.2091     2.5885    -0.9492 C.3     
  20 C20            8.3314     1.9662     0.1386 C.3     
  21 C21            5.0810     2.6181     1.6536 C.ar    
  22 C22            5.2738     2.1673     2.9372 C.ar    
  23 C23            4.3910     1.2464     3.4934 C.ar    
  24 C24            3.3209     0.7830     2.7535 C.ar    
  25 C25            0.3652     0.3346    -1.0310 C.2     
  26 O26           -0.5827     0.8394    -1.6038 O.2     
  27 N27            0.5605    -1.0113    -1.1206 N.am    
  28 C28            0.8126    -0.3014    -5.9723 C.3     
  29 N29            1.9882     0.3138    -6.6404 N.am    
  30 S30            1.6430     1.6368    -7.6130 S.o2    
  31 O31            1.9382     1.2510    -8.9483 O.2     
  32 O32            0.3749     2.1278    -7.2006 O.2     
  33 N33            2.7738     2.8000    -7.1849 N.am    
  34 C34            2.4422     3.5657    -6.1334 C.2     
  35 O35            1.4311     4.2288    -6.2623 O.2     
  36 C36            3.3496    -0.1974    -6.4627 C.3     
  37 C37            3.9965    -0.4121    -7.8325 C.3     
  38 C38            4.1734     0.8133    -5.6623 C.3     
  39 C39            1.3005    -1.1596    -4.8028 C.3     
  40 C40            0.9296    -0.4892    -3.4779 C.3     
  41 C41            0.3504    -1.5266    -2.5085 C.3     
  42 C42            0.9348    -1.8579     0.0150 C.3     
  43 O43            4.5820     0.8031     4.7634 O.3     
  44 C44            5.7094     1.3245     5.4699 C.3     
  45 H45            0.6584     2.7791    -1.5370 H       
  46 H46            1.1728     3.2825     0.0902 H       
  47 H47            1.6627    -0.3097     1.0445 H       
  48 H48            1.3343     3.2348    -3.7324 H       
  49 H49            4.9836     4.4181    -5.6839 H       
  50 H50            6.2206     4.2501    -3.5697 H       
  51 H51            6.3965     3.8857     0.1865 H       
  52 H52            6.2654     1.4195     0.4093 H       
  53 H53            6.8619     1.2372    -1.2578 H       
  54 H54            7.2167     3.2566    -2.6855 H       
  55 H55            6.8730     4.8776    -2.0356 H       
  56 H56            9.3115     4.4290    -2.0641 H       
  57 H57            8.7150     4.6113    -0.3970 H       
  58 H58            9.1804     1.9629    -1.8413 H       
  59 H59           10.2355     2.6622    -0.5900 H       
  60 H60            8.3601     2.5919     1.0307 H       
  61 H61            8.7039     0.9709     0.3807 H       
  62 H62            5.7747     3.3283     1.2284 H       
  63 H63            6.1119     2.5278     3.5152 H       
  64 H64            2.6388     0.0688     3.1908 H       
  65 H65            0.1528     0.4823    -5.6000 H       
  66 H66            0.2739    -0.9268    -6.6842 H       
  67 H67            3.6099     2.9112    -7.6641 H       
  68 H68            3.3146    -1.1448    -5.9249 H       
  69 H69            3.3214    -0.9859    -8.4673 H       
  70 H70            4.1969     0.5543    -8.2952 H       
  71 H71            4.9323    -0.9576    -7.7108 H       
  72 H72            3.7125     0.9662    -4.6865 H       
  73 H73            5.1863     0.4329    -5.5301 H       
  74 H74            4.2084     1.7607    -6.2001 H       
  75 H75            0.8317    -2.1423    -4.8542 H       
  76 H76            2.3830    -1.2719    -4.8626 H       
  77 H77            1.8202    -0.0406    -3.0378 H       
  78 H78            0.1879     0.2883    -3.6611 H       
  79 H79            0.8674    -2.4781    -2.6324 H       
  80 H80           -0.7152    -1.6559    -2.6980 H       
  81 H81            0.4531    -1.4864     0.9194 H       
  82 H82            0.6129    -2.8820    -0.1737 H       
  83 H83            2.0169    -1.8351     0.1441 H       
  84 H84            6.6234     1.0735     4.9315 H       
  85 H85            5.6198     2.4080     5.5482 H       
  86 H86            5.7451     0.8898     6.4688 H       
@<TRIPOS>BOND
   1    1    2 1
   2    1    3 1
   3    1   45 1
   4    1   46 1
   5    2   25 1
   6    2    7 2
   7    3    4 1
   8    3    8 1
   9    4    5 1
  10    4   10 2
  11    5    6 ar
  12    5   21 ar
  13    6    7 1
  14    6   24 ar
  15    7   47 1
  16    8    9 ar
  17    8   11 ar
  18    9   10 1
  19    9   14 ar
  20   10   15 1
  21   11   12 ar
  22   11   48 1
  23   12   13 ar
  24   12   34 1
  25   13   14 ar
  26   13   49 1
  27   14   50 1
  28   15   16 1
  29   15   17 1
  30   15   51 1
  31   16   20 1
  32   16   52 1
  33   16   53 1
  34   17   18 1
  35   17   54 1
  36   17   55 1
  37   18   19 1
  38   18   56 1
  39   18   57 1
  40   19   20 1
  41   19   58 1
  42   19   59 1
  43   20   60 1
  44   20   61 1
  45   21   22 ar
  46   21   62 1
  47   22   23 ar
  48   22   63 1
  49   23   24 ar
  50   23   43 1
  51   24   64 1
  52   25   26 2
  53   25   27 am
  54   27   42 1
  55   27   41 1
  56   28   29 1
  57   28   39 1
  58   28   65 1
  59   28   66 1
  60   29   30 am
  61   29   36 1
  62   30   31 2
  63   30   32 2
  64   30   33 am
  65   33   34 am
  66   33   67 1
  67   34   35 2
  68   36   37 1
  69   36   38 1
  70   36   68 1
  71   37   69 1
  72   37   70 1
  73   37   71 1
  74   38   72 1
  75   38   73 1
  76   38   74 1
  77   39   40 1
  78   39   75 1
  79   39   76 1
  80   40   41 1
  81   40   77 1
  82   40   78 1
  83   41   79 1
  84   41   80 1
  85   42   81 1
  86   42   82 1
  87   42   83 1
  88   43   44 1
  89   44   84 1
  90   44   85 1
  91   44   86 1

#	End of record

