#	Name: ASD01882464
#	Creating user name:	WinNT
#	Creation time:	15. 06. 2019 19:44

#	Modifying user name:	WinNT
#	Modification time:	15. 06. 2019 19:44

#	Program:	/corina/corina34_cracker 3.40 0067  02.08.2006

@<TRIPOS>MOLECULE
ASD01882464
  54   58    0    0    0
SMALL
NO_CHARGES


@<TRIPOS>ATOM
   1 C1             0.7325     1.4200     1.0811 C.2     
   2 C2             0.7681     0.0147     1.0979 C.2     
   3 C3             1.2066    -0.6546    -0.0130 C.2     
   4 C4             1.6135     0.0753    -1.1506 C.2     
   5 C5             1.5712     1.4222    -1.1448 C.2     
   6 N6             1.1358     2.0991    -0.0428 N.pl3   
   7 N7             0.5215     3.5067     1.4678 N.2     
   8 N8             0.3653     2.3319     1.9687 N.2     
   9 C9             0.9860     3.4230     0.2489 C.2     
  10 N10            1.1564    -5.6329    -2.1987 N.3     
  11 C11            0.0813    -6.6062    -1.9679 C.3     
  12 C12           -0.0629    -7.5094    -3.1948 C.3     
  13 C13            1.2619    -8.2345    -3.4473 C.3     
  14 C14            2.3736    -7.1987    -3.6364 C.3     
  15 C15            2.4472    -6.3045    -2.3967 C.3     
  16 N16            1.2514    -2.0467    -0.0204 N.pl3   
  17 C17            2.5331    -2.7538    -0.1467 C.3     
  18 C18            2.4377    -3.7432    -1.3123 C.3     
  19 C19            1.2317    -4.6611    -1.0996 C.3     
  20 C20           -0.0494    -3.8245    -1.0701 C.3     
  21 C21            0.0184    -2.8360     0.1039 C.3     
  22 F22            1.5644    -9.0504    -2.3519 F       
  23 F23            1.1529    -9.0192    -4.6004 F       
  24 C24            1.2967     4.5782    -0.6677 C.3     
  25 C25            0.0527     4.9285    -1.4865 C.3     
  26 C26            0.1286     6.1559    -2.3968 C.3     
  27 C27            0.1330     4.7517    -3.0041 C.3     
  28 Cl28           0.2630    -0.8607     2.5093 Cl      
  29 H29            1.9606    -0.4479    -2.0294 H       
  30 H30            1.8851     1.9710    -2.0203 H       
  31 H31            0.3227    -7.2139    -1.0958 H       
  32 H32           -0.8559    -6.0776    -1.7938 H       
  33 H33           -0.8505    -8.2417    -3.0170 H       
  34 H34           -0.3179    -6.9039    -4.0645 H       
  35 H35            3.3268    -7.7091    -3.7741 H       
  36 H36            2.1570    -6.5883    -4.5131 H       
  37 H37            3.2283    -5.5568    -2.5341 H       
  38 H38            2.6775    -6.9137    -1.5226 H       
  39 H39            3.3292    -2.0352    -0.3416 H       
  40 H40            2.7442    -3.2950     0.7756 H       
  41 H41            2.3169    -3.1945    -2.2463 H       
  42 H42            3.3473    -4.3421    -1.3566 H       
  43 H43            1.3411    -5.1910    -0.1533 H       
  44 H44           -0.1467    -3.2750    -2.0064 H       
  45 H45           -0.9099    -4.4812    -0.9419 H       
  46 H46            0.0286    -3.3837     1.0463 H       
  47 H47           -0.8453    -2.1717     0.0744 H       
  48 H48            1.5964     5.4422    -0.0745 H       
  49 H49            2.1081     4.3002    -1.3404 H       
  50 H50           -0.9020     4.7176    -1.0047 H       
  51 H51           -0.7762     6.7522    -2.5141 H       
  52 H52            1.0649     6.7139    -2.4123 H       
  53 H53            1.0721     4.3857    -3.4192 H       
  54 H54           -0.7690     4.4241    -3.5211 H       
@<TRIPOS>BOND
   1    1    2 1
   2    1    6 1
   3    1    8 2
   4    2    3 2
   5    2   28 1
   6    3    4 1
   7    3   16 1
   8    4    5 2
   9    4   29 1
  10    5    6 1
  11    5   30 1
  12    6    9 1
  13    7    8 1
  14    7    9 2
  15    9   24 1
  16   10   11 1
  17   10   15 1
  18   10   19 1
  19   11   12 1
  20   11   31 1
  21   11   32 1
  22   12   13 1
  23   12   33 1
  24   12   34 1
  25   13   14 1
  26   13   22 1
  27   13   23 1
  28   14   15 1
  29   14   35 1
  30   14   36 1
  31   15   37 1
  32   15   38 1
  33   16   17 1
  34   16   21 1
  35   17   18 1
  36   17   39 1
  37   17   40 1
  38   18   19 1
  39   18   41 1
  40   18   42 1
  41   19   20 1
  42   19   43 1
  43   20   21 1
  44   20   44 1
  45   20   45 1
  46   21   46 1
  47   21   47 1
  48   24   25 1
  49   24   48 1
  50   24   49 1
  51   25   26 1
  52   25   27 1
  53   25   50 1
  54   26   27 1
  55   26   51 1
  56   26   52 1
  57   27   53 1
  58   27   54 1

#	End of record

