#	Name: ASD01880306
#	Creating user name:	WinNT
#	Creation time:	15. 06. 2019 19:40

#	Modifying user name:	WinNT
#	Modification time:	15. 06. 2019 19:40

#	Program:	/corina/corina34_cracker 3.40 0067  02.08.2006

@<TRIPOS>MOLECULE
ASD01880306
  43   45    0    0    0
SMALL
NO_CHARGES


@<TRIPOS>ATOM
   1 C1            -0.0163     1.3493     0.0095 C.2     
   2 C2             0.0021    -0.0041     0.0020 C.2     
   3 N3            -1.1557    -0.7131     0.0093 N.am    
   4 C4            -2.3471    -0.0857     0.0245 C.2     
   5 C5            -2.4025     1.3185     0.0330 C.2     
   6 C6            -1.2403     2.0325     0.0307 C.2     
   7 O7            -3.3795    -0.7370     0.0305 O.2     
   8 C8            -1.1083    -2.1773    -0.0000 C.3     
   9 C9            -1.0779    -2.6879     1.4175 C.ar    
  10 C10           -2.2606    -2.9608     2.0791 C.ar    
  11 C11           -2.2334    -3.4291     3.3792 C.ar    
  12 C12           -1.0221    -3.6248     4.0185 C.ar    
  13 C13            0.1613    -3.3515     3.3558 C.ar    
  14 C14            0.1329    -2.8885     2.0538 C.ar    
  15 Cl15          -0.9871    -4.2125     5.6516 Cl      
  16 C16            1.2781     2.1210     0.0012 C.3     
  17 O17            2.3771     1.2078    -0.0142 O.3     
  18 C18            3.6262     1.7452    -0.0232 C.ar    
  19 C19            4.7378     0.9158    -0.0383 C.ar    
  20 C20            6.0067     1.4617    -0.0474 C.ar    
  21 C21            6.1691     2.8391    -0.0420 C.ar    
  22 C22            5.0575     3.6685    -0.0278 C.ar    
  23 C23            3.7886     3.1226    -0.0231 C.ar    
  24 O24            7.4182     3.3765    -0.0501 O.3     
  25 C25            7.5111     4.8024    -0.0438 C.3     
  26 H26            0.9478    -0.5255    -0.0102 H       
  27 H27           -3.3553     1.8270     0.0449 H       
  28 H28           -1.2628     3.1122     0.0372 H       
  29 H29           -1.9911    -2.5662    -0.5074 H       
  30 H30           -0.2122    -2.5085    -0.5248 H       
  31 H31           -3.2061    -2.8077     1.5801 H       
  32 H32           -3.1574    -3.6420     3.8961 H       
  33 H33            1.1071    -3.5040     3.8543 H       
  34 H34            1.0566    -2.6752     1.5364 H       
  35 H35            1.3185     2.7532    -0.8858 H       
  36 H36            1.3355     2.7436     0.8941 H       
  37 H37            4.6113    -0.1567    -0.0425 H       
  38 H38            6.8723     0.8159    -0.0584 H       
  39 H39            5.1840     4.7410    -0.0236 H       
  40 H40            2.9230     3.7684    -0.0121 H       
  41 H41            7.0143     5.2028    -0.9275 H       
  42 H42            7.0296     5.1940     0.8523 H       
  43 H43            8.5601     5.0983    -0.0514 H       
@<TRIPOS>BOND
   1    1    2 2
   2    1   16 1
   3    1    6 1
   4    2    3 1
   5    2   26 1
   6    3    4 am
   7    3    8 1
   8    4    5 1
   9    4    7 2
  10    5    6 2
  11    5   27 1
  12    6   28 1
  13    8    9 1
  14    8   29 1
  15    8   30 1
  16    9   10 ar
  17    9   14 ar
  18   10   11 ar
  19   10   31 1
  20   11   12 ar
  21   11   32 1
  22   12   13 ar
  23   12   15 1
  24   13   14 ar
  25   13   33 1
  26   14   34 1
  27   16   17 1
  28   16   35 1
  29   16   36 1
  30   17   18 1
  31   18   19 ar
  32   18   23 ar
  33   19   20 ar
  34   19   37 1
  35   20   21 ar
  36   20   38 1
  37   21   22 ar
  38   21   24 1
  39   22   23 ar
  40   22   39 1
  41   23   40 1
  42   24   25 1
  43   25   41 1
  44   25   42 1
  45   25   43 1

#	End of record

