#	Name: ASD01810482
#	Creating user name:	WinNT
#	Creation time:	15. 06. 2019 19:24

#	Modifying user name:	WinNT
#	Modification time:	15. 06. 2019 19:24

#	Program:	/corina/corina34_cracker 3.40 0067  02.08.2006

@<TRIPOS>MOLECULE
ASD01810482
  26   26    0    0    0
SMALL
NO_CHARGES


@<TRIPOS>ATOM
   1 C1             0.3152     1.4574    -0.0356 C.2     
   2 C2             0.1636    -0.0120    -0.0203 C.ar    
   3 C3             1.2720    -0.8337    -0.2359 C.ar    
   4 C4             1.1234    -2.2048    -0.2203 C.ar    
   5 C5            -0.1206    -2.7666     0.0078 C.ar    
   6 C6            -1.2228    -1.9584     0.2220 C.ar    
   7 C7            -1.0872    -0.5855     0.2153 C.ar    
   8 O8             1.4206     1.9531    -0.1249 O.2     
   9 O9            -0.7729     2.2476     0.0438 O.3     
  10 N10           -2.5494    -2.5682     0.4652 N.pl3   
  11 O11           -3.5525    -2.0436     0.0155 O.2     
  12 O12           -2.6380    -3.5946     1.1149 O.2     
  13 C13           -0.2754    -4.2656     0.0223 C.3     
  14 C14            2.6273    -0.2237    -0.4854 C.3     
  15 C15            3.2737     0.1466     0.8509 C.3     
  16 H16            1.9797    -2.8415    -0.3869 H       
  17 H17           -1.9476     0.0443     0.3871 H       
  18 H18           -0.6236     3.2029     0.0300 H       
  19 H19           -0.1237    -4.6367     1.0359 H       
  20 H20           -1.2772    -4.5307    -0.3155 H       
  21 H21            0.4628    -4.7135    -0.6429 H       
  22 H22            3.2587    -0.9426    -1.0076 H       
  23 H23            2.5156     0.6725    -1.0957 H       
  24 H24            2.6423     0.8655     1.3732 H       
  25 H25            3.3854    -0.7496     1.4612 H       
  26 H26            4.2540     0.5878     0.6705 H       
@<TRIPOS>BOND
   1    1    2 1
   2    1    8 2
   3    1    9 1
   4    2    3 ar
   5    2    7 ar
   6    3    4 ar
   7    3   14 1
   8    4    5 ar
   9    4   16 1
  10    5    6 ar
  11    5   13 1
  12    6    7 ar
  13    6   10 1
  14    7   17 1
  15    9   18 1
  16   10   11 2
  17   10   12 2
  18   13   19 1
  19   13   20 1
  20   13   21 1
  21   14   15 1
  22   14   22 1
  23   14   23 1
  24   15   24 1
  25   15   25 1
  26   15   26 1

#	End of record

