#	Name: ASD00170080
#	Creating user name:	WinNT
#	Creation time:	15. 06. 2019 18:31

#	Modifying user name:	WinNT
#	Modification time:	15. 06. 2019 18:31

#	Program:	/corina/corina34_cracker 3.40 0067  02.08.2006

@<TRIPOS>MOLECULE
ASD00170080
  37   39    0    0    0
SMALL
NO_CHARGES


@<TRIPOS>ATOM
   1 C1            -0.0161     1.3347     0.0094 C.2     
   2 C2             0.0021    -0.0041     0.0020 C.2     
   3 C3            -1.3193    -0.5856     0.0124 C.2     
   4 C4            -2.3188     0.3593     0.0276 C.2     
   5 S5            -1.6652     1.9331     0.0360 S.3     
   6 N6            -3.6679     0.0718     0.0398 N.pl3   
   7 C7             1.1883     2.1912     0.0025 C.ar    
   8 C8             1.0600     3.5813     0.0112 C.ar    
   9 C9             2.1884     4.3749     0.0051 C.ar    
  10 C10            3.4450     3.7961    -0.0095 C.ar    
  11 C11            3.5792     2.4190    -0.0182 C.ar    
  12 C12            2.4592     1.6137    -0.0069 C.ar    
  13 C13           -1.5689    -2.0277     0.0067 C.2     
  14 O14           -0.5329    -2.8915    -0.0089 O.3     
  15 O15           -2.7107    -2.4474     0.0161 O.2     
  16 C16           -0.8551    -4.3073    -0.0137 C.3     
  17 C17            0.4188    -5.1123    -0.0314 C.ar    
  18 C18            1.0154    -5.4883     1.1575 C.ar    
  19 C19            2.1839    -6.2267     1.1412 C.ar    
  20 C20            2.7555    -6.5894    -0.0640 C.ar    
  21 C21            2.1584    -6.2142    -1.2529 C.ar    
  22 C22            0.9876    -5.4795    -1.2366 C.ar    
  23 H23            0.9105    -0.5880    -0.0107 H       
  24 H24           -3.9672    -0.8508     0.0379 H       
  25 H25           -4.3173     0.7923     0.0503 H       
  26 H26            0.0797     4.0343     0.0222 H       
  27 H27            2.0906     5.4505     0.0115 H       
  28 H28            4.3252     4.4220    -0.0145 H       
  29 H29            4.5630     1.9736    -0.0296 H       
  30 H30            2.5653     0.5390    -0.0133 H       
  31 H31           -1.4275    -4.5526     0.8809 H       
  32 H32           -1.4459    -4.5425    -0.8989 H       
  33 H33            0.5688    -5.2049     2.0991 H       
  34 H34            2.6504    -6.5199     2.0701 H       
  35 H35            3.6689    -7.1657    -0.0767 H       
  36 H36            2.6052    -6.4973    -2.1945 H       
  37 H37            0.5211    -5.1863    -2.1655 H       
@<TRIPOS>BOND
   1    1    2 2
   2    1    7 1
   3    1    5 1
   4    2    3 1
   5    2   23 1
   6    3    4 2
   7    3   13 1
   8    4    5 1
   9    4    6 1
  10    6   24 1
  11    6   25 1
  12    7    8 ar
  13    7   12 ar
  14    8    9 ar
  15    8   26 1
  16    9   10 ar
  17    9   27 1
  18   10   11 ar
  19   10   28 1
  20   11   12 ar
  21   11   29 1
  22   12   30 1
  23   13   14 1
  24   13   15 2
  25   14   16 1
  26   16   17 1
  27   16   31 1
  28   16   32 1
  29   17   18 ar
  30   17   22 ar
  31   18   19 ar
  32   18   33 1
  33   19   20 ar
  34   19   34 1
  35   20   21 ar
  36   20   35 1
  37   21   22 ar
  38   21   36 1
  39   22   37 1

#	End of record

