#	Name: ASD05313232
#	Creating user name:	WinNT
#	Creation time:	15. 06. 2019 20:58

#	Modifying user name:	WinNT
#	Modification time:	15. 06. 2019 20:58

#	Program:	/corina/corina34_cracker 3.40 0067  02.08.2006

@<TRIPOS>MOLECULE
ASD05313232
  42   45    0    0    0
SMALL
NO_CHARGES


@<TRIPOS>ATOM
   1 C1            -0.5635     1.2442     1.3793 C.2     
   2 C2            -0.1727    -0.2079     1.2161 C.3     
   3 N3             0.3326     2.2510     1.5156 N.pl3   
   4 N4             1.2813    -0.2397     0.9737 N.am    
   5 C5             2.1387     0.6286     1.7948 C.3     
   6 C6             1.7883     2.0937     1.5113 C.3     
   7 N7            -1.7663     1.7391     1.4195 N.2     
   8 C8            -1.6976     3.0669     1.5834 C.2     
   9 C9            -0.3820     3.4141     1.6491 C.2     
  10 C10           -0.6493     5.8158     2.2769 C.ar    
  11 C11            0.1671     4.7753     1.8317 C.ar    
  12 C12            1.5140     5.0413     1.5615 C.ar    
  13 C13            1.9783     6.3316     1.7489 C.ar    
  14 C14            1.1049     7.3075     2.1930 C.ar    
  15 N15           -0.1605     7.0277     2.4400 N.ar    
  16 C16            1.8094    -1.0414     0.0277 C.2     
  17 O17            2.9967    -0.9817    -0.2261 O.2     
  18 C18            0.9450    -1.9929    -0.7011 C.ar    
  19 C19            1.0620    -2.1279    -2.0870 C.ar    
  20 C20            0.2506    -3.0193    -2.7611 C.ar    
  21 C21           -0.6759    -3.7764    -2.0671 C.ar    
  22 C22           -0.7967    -3.6468    -0.6948 C.ar    
  23 C23            0.0118    -2.7653    -0.0076 C.ar    
  24 C24            0.3745    -3.1670    -4.2557 C.3     
  25 F25           -0.5439    -4.1207    -4.7078 F       
  26 F26            0.1104    -1.9378    -4.8692 F       
  27 F27            1.6719    -3.5797    -4.5775 F       
  28 Cl28           2.2237    -1.1773    -2.9591 Cl      
  29 H29           -0.4103    -0.7612     2.1246 H       
  30 H30           -0.7007    -0.6417     0.3668 H       
  31 H31            1.9726     0.4118     2.8501 H       
  32 H32            3.1844     0.4492     1.5452 H       
  33 H33            2.1826     2.3805     0.5364 H       
  34 H34            2.2253     2.7281     2.2824 H       
  35 H35           -2.5372     3.7427     1.6532 H       
  36 H36           -1.6920     5.6266     2.4853 H       
  37 H37            2.1743     4.2597     1.2158 H       
  38 H38            3.0120     6.5736     1.5507 H       
  39 H39            1.4647     8.3151     2.3405 H       
  40 H40           -1.3083    -4.4718    -2.5990 H       
  41 H41           -1.5228    -4.2408    -0.1596 H       
  42 H42           -0.0805    -2.6694     1.0642 H       
@<TRIPOS>BOND
   1    1    2 1
   2    1    3 1
   3    1    7 2
   4    2    4 1
   5    2   29 1
   6    2   30 1
   7    3    6 1
   8    3    9 1
   9    4    5 1
  10    4   16 am
  11    5    6 1
  12    5   31 1
  13    5   32 1
  14    6   33 1
  15    6   34 1
  16    7    8 1
  17    8    9 2
  18    8   35 1
  19    9   11 1
  20   10   11 ar
  21   10   15 ar
  22   10   36 1
  23   11   12 ar
  24   12   13 ar
  25   12   37 1
  26   13   14 ar
  27   13   38 1
  28   14   15 ar
  29   14   39 1
  30   16   17 2
  31   16   18 1
  32   18   19 ar
  33   18   23 ar
  34   19   20 ar
  35   19   28 1
  36   20   21 ar
  37   20   24 1
  38   21   22 ar
  39   21   40 1
  40   22   23 ar
  41   22   41 1
  42   23   42 1
  43   24   25 1
  44   24   26 1
  45   24   27 1

#	End of record

