#	Name: ASD02198199
#	Creating user name:	WinNT
#	Creation time:	15. 06. 2019 20:19

#	Modifying user name:	WinNT
#	Modification time:	15. 06. 2019 20:19

#	Program:	/corina/corina34_cracker 3.40 0067  02.08.2006

@<TRIPOS>MOLECULE
ASD02198199
  50   53    0    0    0
SMALL
NO_CHARGES


@<TRIPOS>ATOM
   1 C1            -0.0552     1.3540     0.4706 C.2     
   2 C2             0.0286    -0.0117     0.2951 C.2     
   3 C3            -0.9775    -0.7748    -0.3802 C.1     
   4 S4             1.3053     1.9446     1.3114 S.3     
   5 C5             2.0077     0.3397     1.4358 C.2     
   6 C6             1.1794    -0.5815     0.8329 C.2     
   7 C7             3.2248     0.0414     2.0545 C.2     
   8 C8             4.0411     1.1423     2.6812 C.3     
   9 O9             3.6253    -1.1068     2.0871 O.2     
  10 N10            1.4623    -1.9354     0.7688 N.pl3   
  11 N11           -1.0942     2.1353     0.0223 N.pl3   
  12 N12           -1.7757    -1.3801    -0.9158 N.1     
  13 C13           -1.0211     3.5283     0.1343 C.ar    
  14 C14            4.9438     0.5655     3.7860 C.3     
  15 C15            0.1841     4.1811    -0.0903 C.ar    
  16 C16            0.2554     5.5556     0.0204 C.ar    
  17 C17           -0.8764     6.2845     0.3564 C.ar    
  18 C18           -2.0807     5.6331     0.5809 C.ar    
  19 C19           -2.1550     4.2593     0.4645 C.ar    
  20 C20            6.3983     0.8625     3.3664 C.3     
  21 C21            6.2781     2.0777     2.4134 C.3     
  22 C22            4.9786     1.7696     1.6289 C.3     
  23 O23           -0.8052     7.6378     0.4661 O.3     
  24 C24           -0.7119     8.3664    -0.6769 C.ar    
  25 C25           -0.8120     7.7396    -1.9109 C.ar    
  26 C26           -0.7173     8.4828    -3.0714 C.ar    
  27 C27           -0.5229     9.8502    -3.0043 C.ar    
  28 C28           -0.4223    10.4772    -1.7760 C.ar    
  29 C29           -0.5220     9.7395    -0.6124 C.ar    
  30 H30            3.3825     1.9046     3.0973 H       
  31 H31            2.2800    -2.2791     1.1612 H       
  32 H32            0.8427    -2.5401     0.3314 H       
  33 H33           -1.8778     1.7208    -0.3716 H       
  34 H34            4.7238     1.0486     4.7380 H       
  35 H35            4.7914    -0.5106     3.8687 H       
  36 H36            1.0653     3.6138    -0.3511 H       
  37 H37            1.1925     6.0633    -0.1542 H       
  38 H38           -2.9612     6.2011     0.8424 H       
  39 H39           -3.0926     3.7523     0.6390 H       
  40 H40            7.0017     1.1188     4.2372 H       
  41 H41            6.8263     0.0078     2.8426 H       
  42 H42            6.1774     3.0038     2.9793 H       
  43 H43            7.1337     2.1264     1.7398 H       
  44 H44            5.1774     1.0614     0.8246 H       
  45 H45            4.5460     2.6879     1.2317 H       
  46 H46           -0.9635     6.6716    -1.9638 H       
  47 H47           -0.7948     7.9954    -4.0320 H       
  48 H48           -0.4491    10.4294    -3.9128 H       
  49 H49           -0.2698    11.5452    -1.7264 H       
  50 H50           -0.4438    10.2298     0.3467 H       
@<TRIPOS>BOND
   1    1    2 2
   2    1    4 1
   3    1   11 1
   4    2    3 1
   5    2    6 1
   6    3   12 3
   7    4    5 1
   8    5    6 2
   9    5    7 1
  10    6   10 1
  11    7    8 1
  12    7    9 2
  13    8   14 1
  14    8   22 1
  15    8   30 1
  16   10   31 1
  17   10   32 1
  18   11   13 1
  19   11   33 1
  20   13   15 ar
  21   13   19 ar
  22   14   20 1
  23   14   34 1
  24   14   35 1
  25   15   16 ar
  26   15   36 1
  27   16   17 ar
  28   16   37 1
  29   17   18 ar
  30   17   23 1
  31   18   19 ar
  32   18   38 1
  33   19   39 1
  34   20   21 1
  35   20   40 1
  36   20   41 1
  37   21   22 1
  38   21   42 1
  39   21   43 1
  40   22   44 1
  41   22   45 1
  42   23   24 1
  43   24   25 ar
  44   24   29 ar
  45   25   26 ar
  46   25   46 1
  47   26   27 ar
  48   26   47 1
  49   27   28 ar
  50   27   48 1
  51   28   29 ar
  52   28   49 1
  53   29   50 1

#	End of record

