#	Name: ASD01914779
#	Creating user name:	WinNT
#	Creation time:	15. 06. 2019 20:04

#	Modifying user name:	WinNT
#	Modification time:	15. 06. 2019 20:04

#	Program:	/corina/corina34_cracker 3.40 0067  02.08.2006

@<TRIPOS>MOLECULE
ASD01914779
  41   44    0    0    0
SMALL
NO_CHARGES


@<TRIPOS>ATOM
   1 N1            -0.0055     1.4656     0.2531 N.am    
   2 C2             0.0717     0.1187    -0.0041 C.2     
   3 C3            -1.1592    -0.7055    -0.2963 C.3     
   4 C4            -2.3490    -0.0426     0.4068 C.3     
   5 N5            -2.3218     1.4073     0.2401 N.am    
   6 C6            -1.1796     2.1225     0.2822 C.2     
   7 C7             1.2668     1.9085     0.4580 C.2     
   8 C8             2.0747     0.8347     0.3297 C.2     
   9 N9             1.3123    -0.2396     0.0503 N.2     
  10 C10            3.5748     0.8378     0.4736 C.3     
  11 Cl11           1.7536     3.5362     0.8146 Cl      
  12 O12           -1.2098     3.3355     0.3453 O.2     
  13 C13           -3.5303     2.0823     0.0276 C.ar    
  14 O14            3.9232     0.5867     1.8365 O.3     
  15 C15            5.2477     0.5561     2.1393 C.ar    
  16 C16            5.6571     0.3174     3.4431 C.ar    
  17 C17            6.1928     0.7579     1.1439 C.ar    
  18 C18            7.5385     0.7259     1.4541 C.ar    
  19 C19            7.9439     0.4925     2.7553 C.ar    
  20 C20            7.0040     0.2864     3.7482 C.ar    
  21 C21           -3.7811     2.6906    -1.1950 C.ar    
  22 C22           -4.9738     3.3554    -1.4027 C.ar    
  23 C23           -5.9191     3.4155    -0.3926 C.ar    
  24 C24           -5.6708     2.8095     0.8275 C.ar    
  25 C25           -4.4816     2.1392     1.0374 C.ar    
  26 F26           -7.0849     4.0667    -0.5976 F       
  27 H27           -1.3363    -0.7353    -1.3714 H       
  28 H28           -1.0237    -1.7180     0.0839 H       
  29 H29           -3.2753    -0.4332    -0.0144 H       
  30 H30           -2.3132    -0.2805     1.4699 H       
  31 H31            4.0022     0.0605    -0.1598 H       
  32 H32            3.9668     1.8090     0.1714 H       
  33 H33            4.9233     0.1563     4.2191 H       
  34 H34            5.8766     0.9395     0.1273 H       
  35 H35            8.2746     0.8829     0.6796 H       
  36 H36            8.9965     0.4676     2.9957 H       
  37 H37            7.3232     0.1046     4.7638 H       
  38 H38           -3.0440     2.6442    -1.9830 H       
  39 H39           -5.1692     3.8290    -2.3535 H       
  40 H40           -6.4092     2.8579     1.6141 H       
  41 H41           -4.2884     1.6667     1.9891 H       
@<TRIPOS>BOND
   1    1    2 1
   2    1    7 1
   3    1    6 am
   4    2    3 1
   5    2    9 2
   6    3    4 1
   7    3   27 1
   8    3   28 1
   9    4    5 1
  10    4   29 1
  11    4   30 1
  12    5    6 am
  13    5   13 1
  14    6   12 2
  15    7    8 2
  16    7   11 1
  17    8    9 1
  18    8   10 1
  19   10   14 1
  20   10   31 1
  21   10   32 1
  22   13   21 ar
  23   13   25 ar
  24   14   15 1
  25   15   16 ar
  26   15   17 ar
  27   16   20 ar
  28   16   33 1
  29   17   18 ar
  30   17   34 1
  31   18   19 ar
  32   18   35 1
  33   19   20 ar
  34   19   36 1
  35   20   37 1
  36   21   22 ar
  37   21   38 1
  38   22   23 ar
  39   22   39 1
  40   23   24 ar
  41   23   26 1
  42   24   25 ar
  43   24   40 1
  44   25   41 1

#	End of record

