#	Name: ASD00431162
#	Creating user name:	WinNT
#	Creation time:	15. 06. 2019 18:35

#	Modifying user name:	WinNT
#	Modification time:	15. 06. 2019 18:35

#	Program:	/corina/corina34_cracker 3.40 0067  02.08.2006

@<TRIPOS>MOLECULE
ASD00431162
  55   58    0    0    0
SMALL
NO_CHARGES


@<TRIPOS>ATOM
   1 C1             3.8095     6.7645     8.6907 C.2     
   2 C2             4.5670     7.1150     9.9455 C.3     
   3 O3             4.3827     6.7443     7.6221 O.2     
   4 N4             2.4965     6.4680     8.7569 N.am    
   5 C5             1.7601     6.1273     7.5370 C.3     
   6 C6             1.9316     4.6367     7.2374 C.3     
   7 O7            -0.4249     6.2228     8.8398 O.3     
   8 N8            -1.5750     6.5697     8.7025 N.2     
   9 C9            -1.7870     7.0572     7.5020 C.2     
  10 C10           -0.5383     6.9803     6.8193 C.2     
  11 C11            0.2977     6.4358     7.7303 C.2     
  12 S12           -3.3184     8.2276     5.3496 S.3     
  13 C13           -4.9618     8.5218     5.7170 C.2     
  14 N14           -5.2245     8.1529     6.9329 N.2     
  15 C15           -4.2337     7.6446     7.6322 C.2     
  16 C16           -3.0610     7.5793     6.9675 C.2     
  17 O17           -5.8612     9.0627     4.8611 O.3     
  18 C18           -7.1574     9.1427     5.2636 C.ar    
  19 C19           -7.5098     9.9911     6.3031 C.ar    
  20 C20           -8.8266    10.0722     6.7120 C.ar    
  21 C21           -9.7965     9.3054     6.0834 C.ar    
  22 C22           -9.4442     8.4570     5.0441 C.ar    
  23 C23           -8.1284     8.3800     4.6313 C.ar    
  24 O24          -11.0928     9.3849     6.4863 O.3     
  25 C25          -12.0507     8.6283     5.7434 C.3     
  26 C26          -13.2827     8.3707     6.6133 C.3     
  27 C27          -14.3083     7.5606     5.8179 C.3     
  28 C28          -14.7201     8.3441     4.5699 C.3     
  29 C29          -13.4881     8.6018     3.7000 C.3     
  30 C30          -12.4625     9.4119     4.4954 C.3     
  31 H31            5.6086     7.3178     9.6964 H       
  32 H32            4.1237     7.9999    10.4023 H       
  33 H33            4.5165     6.2809    10.6453 H       
  34 H34            2.0390     6.4802     9.6121 H       
  35 H35            2.1478     6.7125     6.7032 H       
  36 H36            2.9893     4.4136     7.0976 H       
  37 H37            1.5439     4.0515     8.0712 H       
  38 H38            1.3837     4.3832     6.3298 H       
  39 H39           -0.3127     7.2863     5.8084 H       
  40 H40           -4.3486     7.3079     8.6519 H       
  41 H41           -6.7546    10.5880     6.7927 H       
  42 H42           -9.1010    10.7325     7.5214 H       
  43 H43          -10.1994     7.8596     4.5550 H       
  44 H44           -7.8548     7.7227     3.8191 H       
  45 H45          -11.6104     7.6766     5.4460 H       
  46 H46          -12.9893     7.8125     7.5024 H       
  47 H47          -13.7230     9.3224     6.9107 H       
  48 H48          -13.8680     6.6089     5.5205 H       
  49 H49          -15.1860     7.3770     6.4376 H       
  50 H50          -15.4507     7.7670     4.0032 H       
  51 H51          -15.1604     9.2959     4.8673 H       
  52 H52          -13.0478     7.6501     3.4026 H       
  53 H53          -13.7814     9.1600     2.8109 H       
  54 H54          -12.9028    10.3636     4.7928 H       
  55 H55          -11.5848     9.5955     3.8756 H       
@<TRIPOS>BOND
   1    1    2 1
   2    1    3 2
   3    1    4 am
   4    2   31 1
   5    2   32 1
   6    2   33 1
   7    4    5 1
   8    4   34 1
   9    5    6 1
  10    5   11 1
  11    5   35 1
  12    6   36 1
  13    6   37 1
  14    6   38 1
  15    7    8 1
  16    7   11 1
  17    8    9 2
  18    9   10 1
  19    9   16 1
  20   10   11 2
  21   10   39 1
  22   12   13 1
  23   12   16 1
  24   13   14 2
  25   13   17 1
  26   14   15 1
  27   15   16 2
  28   15   40 1
  29   17   18 1
  30   18   19 ar
  31   18   23 ar
  32   19   20 ar
  33   19   41 1
  34   20   21 ar
  35   20   42 1
  36   21   22 ar
  37   21   24 1
  38   22   23 ar
  39   22   43 1
  40   23   44 1
  41   24   25 1
  42   25   26 1
  43   25   30 1
  44   25   45 1
  45   26   27 1
  46   26   46 1
  47   26   47 1
  48   27   28 1
  49   27   48 1
  50   27   49 1
  51   28   29 1
  52   28   50 1
  53   28   51 1
  54   29   30 1
  55   29   52 1
  56   29   53 1
  57   30   54 1
  58   30   55 1

#	End of record

