#	Name: ASD01881719
#	Creating user name:	WinNT
#	Creation time:	15. 06. 2019 19:43

#	Modifying user name:	WinNT
#	Modification time:	15. 06. 2019 19:43

#	Program:	/corina/corina34_cracker 3.40 0067  02.08.2006

@<TRIPOS>MOLECULE
ASD01881719
  55   58    0    0    0
SMALL
NO_CHARGES


@<TRIPOS>ATOM
   1 N1            -0.0132     1.1322    -0.2387 N.am    
   2 C2            -0.1175    -0.2771     0.1636 C.3     
   3 C3             0.8054    -0.5173     1.3625 C.3     
   4 C4             2.2246    -0.0687     1.0066 C.3     
   5 C5             2.2238     1.4286     0.6899 C.3     
   6 C6             1.3170     1.6909    -0.5166 C.3     
   7 C7            -1.1171     1.8964    -0.3559 C.2     
   8 O8            -2.2120     1.4212    -0.1282 O.2     
   9 O9            -1.0068     3.1863    -0.7255 O.3     
  10 O10            3.0949    -0.3212     2.1115 O.3     
  11 N11            8.4545    -1.0556     1.2517 N.pl3   
  12 N12            8.7794    -1.3868     2.5755 N.2     
  13 N13            7.7156    -1.3558     3.2980 N.2     
  14 C14            6.6487    -1.0174     2.5468 C.ar    
  15 C15            7.0987    -0.8198     1.2298 C.ar    
  16 C16            5.2882    -0.8468     2.8380 C.ar    
  17 C17            4.4153    -0.4878     1.8319 C.ar    
  18 C18            4.8763    -0.2953     0.5318 C.ar    
  19 C19            6.1994    -0.4594     0.2327 C.ar    
  20 C20            9.3776    -0.9711     0.1172 C.3     
  21 C21            9.4672    -2.3351    -0.5700 C.3     
  22 C22           10.2943    -2.4263    -1.8540 C.3     
  23 C23           10.8228    -3.0444    -0.5581 C.3     
  24 Br24           4.6533    -1.1062     4.6002 Br      
  25 C25           -2.2376     3.9493    -0.8314 C.3     
  26 C26           -2.9436     3.9694     0.5259 C.3     
  27 C27           -1.9142     5.3822    -1.2593 C.3     
  28 C28           -3.1520     3.3003    -1.8723 C.3     
  29 H29           -1.1466    -0.5018     0.4439 H       
  30 H30            0.1857    -0.9170    -0.6650 H       
  31 H31            0.4468     0.0550     2.2181 H       
  32 H32            0.8108    -1.5787     1.6106 H       
  33 H33            2.5732    -0.6238     0.1357 H       
  34 H34            1.8519     1.9825     1.5518 H       
  35 H35            3.2388     1.7522     0.4593 H       
  36 H36            1.7373     1.2114    -1.4007 H       
  37 H37            1.2344     2.7646    -0.6851 H       
  38 H38            4.1821    -0.0148    -0.2465 H       
  39 H39            6.5470    -0.3080    -0.7785 H       
  40 H40            9.0129    -0.2295    -0.5935 H       
  41 H41           10.3652    -0.6781     0.4734 H       
  42 H42            8.5736    -2.9555    -0.5019 H       
  43 H43            9.9449    -3.1069    -2.6304 H       
  44 H44           10.7745    -1.5145    -2.2091 H       
  45 H45           11.6508    -2.5393    -0.0606 H       
  46 H46           10.8212    -4.1318    -0.4819 H       
  47 H47           -2.2921     4.4318     1.2675 H       
  48 H48           -3.8676     4.5422     0.4464 H       
  49 H49           -3.1740     2.9486     0.8307 H       
  50 H50           -1.4112     5.3679    -2.2262 H       
  51 H51           -2.8382     5.9550    -1.3388 H       
  52 H52           -1.2628     5.8446    -0.5177 H       
  53 H53           -3.3824     2.2795    -1.5675 H       
  54 H54           -4.0760     3.8730    -1.9518 H       
  55 H55           -2.6491     3.2860    -2.8392 H       
@<TRIPOS>BOND
   1    1    2 1
   2    1    6 1
   3    1    7 am
   4    2    3 1
   5    2   29 1
   6    2   30 1
   7    3    4 1
   8    3   31 1
   9    3   32 1
  10    4    5 1
  11    4   10 1
  12    4   33 1
  13    5    6 1
  14    5   34 1
  15    5   35 1
  16    6   36 1
  17    6   37 1
  18    7    8 2
  19    7    9 1
  20    9   25 1
  21   10   17 1
  22   11   12 1
  23   11   15 1
  24   11   20 1
  25   12   13 2
  26   13   14 1
  27   14   15 ar
  28   14   16 ar
  29   15   19 ar
  30   16   17 ar
  31   16   24 1
  32   17   18 ar
  33   18   19 ar
  34   18   38 1
  35   19   39 1
  36   20   21 1
  37   20   40 1
  38   20   41 1
  39   21   22 1
  40   21   23 1
  41   21   42 1
  42   22   23 1
  43   22   43 1
  44   22   44 1
  45   23   45 1
  46   23   46 1
  47   25   26 1
  48   25   28 1
  49   25   27 1
  50   26   47 1
  51   26   48 1
  52   26   49 1
  53   27   50 1
  54   27   51 1
  55   27   52 1
  56   28   53 1
  57   28   54 1
  58   28   55 1

#	End of record

