#	Name: ASD01940565
#	Creating user name:	WinNT
#	Creation time:	15. 06. 2019 20:12

#	Modifying user name:	WinNT
#	Modification time:	15. 06. 2019 20:12

#	Program:	/corina/corina34_cracker 3.40 0067  02.08.2006

@<TRIPOS>MOLECULE
ASD01940565
  38   38    0    0    0
SMALL
NO_CHARGES


@<TRIPOS>ATOM
   1 C1            -0.0663     1.9243    -0.2170 C.3     
   2 S2            -0.0477     0.1165    -0.0681 S.o2    
   3 O3             0.7545    -0.2848     1.0340 O.2     
   4 O4            -1.3532    -0.4127    -0.2552 O.2     
   5 N5             0.7961    -0.3989    -1.3965 N.am    
   6 C6             2.1122     0.0322    -1.6003 C.ar    
   7 C7             2.5731     0.2777    -2.8895 C.ar    
   8 C8             3.8814     0.7062    -3.0857 C.ar    
   9 C9             4.7215     0.8872    -1.9947 C.ar    
  10 C10            4.2593     0.6417    -0.7157 C.ar    
  11 C11            2.9578     0.2210    -0.5154 C.ar    
  12 O12            1.7462     0.0985    -3.9559 O.3     
  13 C13            0.9691     1.2237    -4.3706 C.3     
  14 C14            5.1752     0.8387     0.4647 C.3     
  15 C15            6.5458     1.3094    -0.0262 C.3     
  16 C16            4.5800     1.8914     1.4019 C.3     
  17 C17            5.3297    -0.4848     1.2167 C.3     
  18 N18            4.3510     0.9544    -4.3809 N.pl3   
  19 H19            0.9572     2.2992    -0.2196 H       
  20 H20           -0.5592     2.2072    -1.1471 H       
  21 H21           -0.6081     2.3527     0.6262 H       
  22 H22            0.3784    -0.9995    -2.0335 H       
  23 H23            5.7377     1.2201    -2.1461 H       
  24 H24            2.5995     0.0350     0.4863 H       
  25 H25            0.3556     0.9457    -5.2276 H       
  26 H26            0.3251     1.5425    -3.5509 H       
  27 H27            1.6337     2.0414    -4.6495 H       
  28 H28            6.4357     2.2522    -0.5620 H       
  29 H29            7.2082     1.4518     0.8276 H       
  30 H30            6.9698     0.5594    -0.6939 H       
  31 H31            3.6036     1.5560     1.7516 H       
  32 H32            5.2425     2.0338     2.2557 H       
  33 H33            4.4699     2.8342     0.8662 H       
  34 H34            5.7538    -1.2347     0.5490 H       
  35 H35            5.9922    -0.3423     2.0705 H       
  36 H36            4.3533    -0.8201     1.5664 H       
  37 H37            3.7637     0.8274    -5.1424 H       
  38 H38            5.2637     1.2533    -4.5169 H       
@<TRIPOS>BOND
   1    1    2 1
   2    1   19 1
   3    1   20 1
   4    1   21 1
   5    2    3 2
   6    2    4 2
   7    2    5 am
   8    5    6 1
   9    5   22 1
  10    6    7 ar
  11    6   11 ar
  12    7    8 ar
  13    7   12 1
  14    8    9 ar
  15    8   18 1
  16    9   10 ar
  17    9   23 1
  18   10   11 ar
  19   10   14 1
  20   11   24 1
  21   12   13 1
  22   13   25 1
  23   13   26 1
  24   13   27 1
  25   14   15 1
  26   14   17 1
  27   14   16 1
  28   15   28 1
  29   15   29 1
  30   15   30 1
  31   16   31 1
  32   16   32 1
  33   16   33 1
  34   17   34 1
  35   17   35 1
  36   17   36 1
  37   18   37 1
  38   18   38 1

#	End of record

