#	Name: ASD01028546
#	Creating user name:	WinNT
#	Creation time:	15. 06. 2019 18:57

#	Modifying user name:	WinNT
#	Modification time:	15. 06. 2019 18:57

#	Program:	/corina/corina34_cracker 3.40 0067  02.08.2006

@<TRIPOS>MOLECULE
ASD01028546
  46   50    0    0    0
SMALL
NO_CHARGES


@<TRIPOS>ATOM
   1 C1            -0.0164     1.3582     0.0095 C.2     
   2 N2             0.0021    -0.0041     0.0020 N.pl3   
   3 C3             1.1480     2.0625     0.0022 C.2     
   4 C4             2.3887     1.3823    -0.0138 C.2     
   5 C5             2.4104     0.0247    -0.0212 C.2     
   6 C6             1.1938    -0.6866    -0.0130 C.2     
   7 N7             0.8966    -1.9759    -0.0174 N.2     
   8 N8            -0.3817    -2.1222    -0.0057 N.2     
   9 C9            -0.9719    -0.9551     0.0062 C.2     
  10 C10           -2.4584    -0.7082     0.0226 C.3     
  11 C11            1.1165     3.5462     0.0104 C.ar    
  12 C12           -2.9601     0.5678     2.0891 C.ar    
  13 C13           -2.9396    -0.6337     1.4488 C.ar    
  14 C14           -3.3580    -1.7950     2.0947 C.ar    
  15 C15           -3.7991    -1.7629     3.3819 C.ar    
  16 C16           -3.8352    -0.5416     4.0769 C.ar    
  17 C17           -3.4086     0.6385     3.4179 C.ar    
  18 N18           -4.2633    -0.4813     5.3420 N.ar    
  19 C19           -4.2998     0.6528     5.9971 C.ar    
  20 C20           -3.8939     1.8544     5.4079 C.ar    
  21 C21           -3.4448     1.8609     4.1136 C.ar    
  22 O22           -3.9447     3.0125     6.1173 O.3     
  23 C23           -4.4237     2.9297     7.4611 C.3     
  24 C24            1.6214     4.2496     1.1018 C.ar    
  25 C25            1.5905     5.6318     1.1051 C.ar    
  26 C26            1.0587     6.3172     0.0254 C.ar    
  27 C27            0.5556     5.6219    -1.0617 C.ar    
  28 C28            0.5873     4.2397    -1.0757 C.ar    
  29 F29            2.0794     6.3149     2.1632 F       
  30 F30            0.0376     6.2954    -2.1121 F       
  31 H31           -0.9607     1.8823     0.0168 H       
  32 H32            3.3135     1.9400    -0.0203 H       
  33 H33            3.3514    -0.5052    -0.0338 H       
  34 H34           -2.6762     0.2320    -0.4839 H       
  35 H35           -2.9679    -1.5239    -0.4906 H       
  36 H36           -2.6290     1.4605     1.5794 H       
  37 H37           -3.3323    -2.7360     1.5653 H       
  38 H38           -4.1206    -2.6724     3.8675 H       
  39 H39           -4.6526     0.6599     7.0178 H       
  40 H40           -3.1266     2.7783     3.6409 H       
  41 H41           -3.7811     2.2624     8.0354 H       
  42 H42           -4.4132     3.9218     7.9124 H       
  43 H43           -5.4423     2.5416     7.4604 H       
  44 H44            2.0360     3.7159     1.9443 H       
  45 H45            1.0358     7.3969     0.0314 H       
  46 H46            0.1952     3.6984    -1.9240 H       
@<TRIPOS>BOND
   1    1    2 1
   2    1    3 2
   3    1   31 1
   4    2    6 1
   5    2    9 1
   6    3    4 1
   7    3   11 1
   8    4    5 2
   9    4   32 1
  10    5    6 1
  11    5   33 1
  12    6    7 2
  13    7    8 1
  14    8    9 2
  15    9   10 1
  16   10   13 1
  17   10   34 1
  18   10   35 1
  19   11   24 ar
  20   11   28 ar
  21   12   13 ar
  22   12   17 ar
  23   12   36 1
  24   13   14 ar
  25   14   15 ar
  26   14   37 1
  27   15   16 ar
  28   15   38 1
  29   16   17 ar
  30   16   18 ar
  31   17   21 ar
  32   18   19 ar
  33   19   20 ar
  34   19   39 1
  35   20   21 ar
  36   20   22 1
  37   21   40 1
  38   22   23 1
  39   23   41 1
  40   23   42 1
  41   23   43 1
  42   24   25 ar
  43   24   44 1
  44   25   26 ar
  45   25   29 1
  46   26   27 ar
  47   26   45 1
  48   27   28 ar
  49   27   30 1
  50   28   46 1

#	End of record

