#	Name: ASD01916013
#	Creating user name:	WinNT
#	Creation time:	15. 06. 2019 20:06

#	Modifying user name:	WinNT
#	Modification time:	15. 06. 2019 20:06

#	Program:	/corina/corina34_cracker 3.40 0067  02.08.2006

@<TRIPOS>MOLECULE
ASD01916013
  40   42    0    0    0
SMALL
NO_CHARGES


@<TRIPOS>ATOM
   1 C1            -0.7824     2.7705     1.4687 C.ar    
   2 C2            -0.3692     1.6176     0.7856 C.ar    
   3 C3            -1.3286     0.6968     0.4128 C.ar    
   4 C4            -2.6666     0.9420     0.7256 C.ar    
   5 C5            -3.6998    -0.0396     0.3301 C.2     
   6 N6            -4.9798     0.1382     0.7127 N.am    
   7 O7            -3.3945    -1.0068    -0.3400 O.2     
   8 C8            -6.0233    -0.7655     0.2221 C.3     
   9 C9             0.1739     3.7551     1.8767 C.1     
  10 C10            0.9580     4.5624     2.2112 C.1     
  11 C11            1.9144     5.5470     2.6192 C.ar    
  12 C12            1.4944     6.6937     3.2997 C.ar    
  13 C13            4.1882     6.3144     2.7390 C.ar    
  14 C14            2.4200     7.6378     3.6898 C.ar    
  15 N15           -3.0247     2.0451     1.3741 N.ar    
  16 C16           -2.1458     2.9479     1.7411 C.ar    
  17 C17            3.2725     5.3628     2.3436 C.ar    
  18 C18            3.7647     7.4523     3.4081 C.ar    
  19 C19           -5.3277     1.2352     1.6193 C.3     
  20 C20           -5.8281    -2.2447     0.5610 C.3     
  21 C21           -7.4571    -0.2333     0.1818 C.3     
  22 C22           -6.6759    -0.4285    -1.1200 C.3     
  23 F23            4.6670     8.3810     3.7934 F       
  24 H24            0.6735     1.4540     0.5565 H       
  25 H25           -1.0469    -0.2024    -0.1149 H       
  26 H26            0.4471     6.8397     3.5191 H       
  27 H27            5.2371     6.1756     2.5225 H       
  28 H28            2.0969     8.5241     4.2156 H       
  29 H29           -2.4752     3.8317     2.2671 H       
  30 H30            3.6036     4.4768     1.8224 H       
  31 H31           -5.4753     2.1491     1.0439 H       
  32 H32           -6.2462     0.9889     2.1519 H       
  33 H33           -4.5205     1.3837     2.3365 H       
  34 H34           -5.8873    -2.3809     1.6408 H       
  35 H35           -6.6069    -2.8341     0.0772 H       
  36 H36           -4.8510    -2.5728     0.2065 H       
  37 H37           -8.2614    -0.9370     0.3964 H       
  38 H38           -7.6241     0.7893     0.5204 H       
  39 H39           -6.3293     0.4658    -1.6379 H       
  40 H40           -6.9666    -1.2604    -1.7615 H       
@<TRIPOS>BOND
   1    1    2 ar
   2    1    9 1
   3    1   16 ar
   4    2    3 ar
   5    2   24 1
   6    3    4 ar
   7    3   25 1
   8    4   15 ar
   9    4    5 1
  10    5    6 am
  11    5    7 2
  12    6    8 1
  13    6   19 1
  14    8   20 1
  15    8   21 1
  16    8   22 1
  17    9   10 3
  18   10   11 1
  19   11   12 ar
  20   11   17 ar
  21   12   14 ar
  22   12   26 1
  23   13   18 ar
  24   13   17 ar
  25   13   27 1
  26   14   18 ar
  27   14   28 1
  28   15   16 ar
  29   16   29 1
  30   17   30 1
  31   18   23 1
  32   19   31 1
  33   19   32 1
  34   19   33 1
  35   20   34 1
  36   20   35 1
  37   20   36 1
  38   21   22 1
  39   21   37 1
  40   21   38 1
  41   22   39 1
  42   22   40 1

#	End of record

