#	Name: ASD02038346
#	Creating user name:	WinNT
#	Creation time:	15. 06. 2019 20:16

#	Modifying user name:	WinNT
#	Modification time:	15. 06. 2019 20:16

#	Program:	/corina/corina34_cracker 3.40 0067  02.08.2006

@<TRIPOS>MOLECULE
ASD02038346
  43   45    0    0    0
SMALL
NO_CHARGES


@<TRIPOS>ATOM
   1 C1            -0.0186     1.5367     0.0263 C.3     
   2 C2             0.0022    -0.0041     0.0103 C.3     
   3 N3             1.4342    -0.3368    -0.0243 N.am    
   4 C4             2.1492     0.7959    -0.0286 C.2     
   5 N5             1.4039     1.9085    -0.0011 N.am    
   6 C6             1.9904    -1.6919    -0.0501 C.3     
   7 C7             2.1526    -2.1491    -1.5011 C.3     
   8 C8             2.7335    -3.5643    -1.5280 C.3     
   9 O9             2.8849    -3.9914    -2.8833 O.3     
  10 C10            3.5662    -5.7140    -4.3757 C.ar    
  11 C11            3.3929    -5.2365    -3.0851 C.ar    
  12 O12            3.3647     0.8125    -0.0546 O.2     
  13 C13            1.9004     3.2175     0.0012 C.ar    
  14 C14            1.0266     4.2929    -0.0894 C.ar    
  15 C15            3.2670     3.4429     0.0999 C.ar    
  16 C16            3.7541     4.7352     0.1024 C.ar    
  17 C17            2.8816     5.8050     0.0067 C.ar    
  18 C18            1.5189     5.5833    -0.0865 C.ar    
  19 Cl19           3.4971     7.4282     0.0107 Cl      
  20 C20            4.0823    -6.9788    -4.5807 C.ar    
  21 C21            4.4271    -7.7713    -3.4959 C.ar    
  22 C22            4.2542    -7.2936    -2.2053 C.ar    
  23 C23            3.7382    -6.0288    -2.0003 C.ar    
  24 O24            4.9343    -9.0167    -3.6977 O.3     
  25 H25           -0.5316     1.9215    -0.8551 H       
  26 H26           -0.4925     1.9035     0.9367 H       
  27 H27           -0.4614    -0.4024     0.9129 H       
  28 H28           -0.5005    -0.3844    -0.8789 H       
  29 H29            2.9627    -1.6949     0.4427 H       
  30 H30            1.3165    -2.3713     0.4718 H       
  31 H31            1.1803    -2.1461    -1.9938 H       
  32 H32            2.8265    -1.4697    -2.0230 H       
  33 H33            3.7058    -3.5673    -1.0353 H       
  34 H34            2.0596    -4.2437    -1.0061 H       
  35 H35            3.2935    -5.0986    -5.2203 H       
  36 H36           -0.0370     4.1204    -0.1625 H       
  37 H37            3.9483     2.6083     0.1750 H       
  38 H38            4.8169     4.9110     0.1795 H       
  39 H39            0.8400     6.4199    -0.1615 H       
  40 H40            4.2169    -7.3507    -5.5857 H       
  41 H41            4.5227    -7.9107    -1.3606 H       
  42 H42            3.6032    -5.6570    -0.9954 H       
  43 H43            5.8982    -9.0418    -3.7710 H       
@<TRIPOS>BOND
   1    1    2 1
   2    1    5 1
   3    1   25 1
   4    1   26 1
   5    2    3 1
   6    2   27 1
   7    2   28 1
   8    3    4 am
   9    3    6 1
  10    4    5 am
  11    4   12 2
  12    5   13 1
  13    6    7 1
  14    6   29 1
  15    6   30 1
  16    7    8 1
  17    7   31 1
  18    7   32 1
  19    8    9 1
  20    8   33 1
  21    8   34 1
  22    9   11 1
  23   10   11 ar
  24   10   20 ar
  25   10   35 1
  26   11   23 ar
  27   13   14 ar
  28   13   15 ar
  29   14   18 ar
  30   14   36 1
  31   15   16 ar
  32   15   37 1
  33   16   17 ar
  34   16   38 1
  35   17   18 ar
  36   17   19 1
  37   18   39 1
  38   20   21 ar
  39   20   40 1
  40   21   22 ar
  41   21   24 1
  42   22   23 ar
  43   22   41 1
  44   23   42 1
  45   24   43 1

#	End of record

