#	Name: ASD01810921
#	Creating user name:	WinNT
#	Creation time:	15. 06. 2019 19:25

#	Modifying user name:	WinNT
#	Modification time:	15. 06. 2019 19:25

#	Program:	/corina/corina34_cracker 3.40 0067  02.08.2006

@<TRIPOS>MOLECULE
ASD01810921
  24   24    0    0    0
SMALL
NO_CHARGES


@<TRIPOS>ATOM
   1 C1            -0.0179     1.4714     0.0101 C.2     
   2 C2             0.0021    -0.0041     0.0020 C.ar    
   3 C3             1.2211    -0.6907    -0.0133 C.ar    
   4 C4             1.2302    -2.0734    -0.0209 C.ar    
   5 C5             0.0391    -2.7751    -0.0133 C.ar    
   6 C6            -1.1699    -2.1010     0.0014 C.ar    
   7 C7            -1.1957    -0.7225     0.0154 C.ar    
   8 O8             1.0258     2.0931     0.0035 O.2     
   9 O9            -1.1937     2.1291     0.0193 O.3     
  10 F10            2.3852    -0.0052    -0.0211 F       
  11 C11            0.0568    -4.2820    -0.0216 C.3     
  12 C12            0.0766    -4.7998     1.4180 C.3     
  13 C13           -1.1374     3.5800     0.0269 C.3     
  14 H14            2.1695    -2.6062    -0.0331 H       
  15 H15           -2.0959    -2.6567     0.0065 H       
  16 H16           -2.1403    -0.1992     0.0321 H       
  17 H17           -0.8337    -4.6531    -0.5290 H       
  18 H18            0.9461    -4.6320    -0.5459 H       
  19 H19            0.9671    -4.4287     1.9254 H       
  20 H20           -0.8127    -4.4498     1.9422 H       
  21 H21            0.0895    -5.8897     1.4120 H       
  22 H22           -0.6057     3.9183     0.9162 H       
  23 H23           -0.6141     3.9280    -0.8637 H       
  24 H24           -2.1502     3.9829     0.0339 H       
@<TRIPOS>BOND
   1    1    2 1
   2    1    8 2
   3    1    9 1
   4    2    3 ar
   5    2    7 ar
   6    3    4 ar
   7    3   10 1
   8    4    5 ar
   9    4   14 1
  10    5    6 ar
  11    5   11 1
  12    6    7 ar
  13    6   15 1
  14    7   16 1
  15    9   13 1
  16   11   12 1
  17   11   17 1
  18   11   18 1
  19   12   19 1
  20   12   20 1
  21   12   21 1
  22   13   22 1
  23   13   23 1
  24   13   24 1

#	End of record

