#	Name: ASD01900429
#	Creating user name:	WinNT
#	Creation time:	15. 06. 2019 19:51

#	Modifying user name:	WinNT
#	Modification time:	15. 06. 2019 19:51

#	Program:	/corina/corina34_cracker 3.40 0067  02.08.2006

@<TRIPOS>MOLECULE
ASD01900429
  29   31    0    0    0
SMALL
NO_CHARGES


@<TRIPOS>ATOM
   1 C1            -0.0263     1.3950     0.1273 C.ar    
   2 C2             0.0063     0.0001    -0.0618 C.ar    
   3 C3             1.2233    -0.6705     0.0548 C.ar    
   4 C4             2.3509     0.0689     0.3528 C.ar    
   5 C5             2.2452     1.4428     0.5264 C.ar    
   6 N6             1.0909     2.0595     0.4131 N.ar    
   7 N7            -2.1142     0.7220    -0.3273 N.2     
   8 N8            -1.2751    -0.3970    -0.3386 N.pl3   
   9 C9            -1.4235     1.7964    -0.0519 C.2     
  10 N10           -1.9266     3.0976     0.0454 N.pl3   
  11 C11           -3.3024     3.3226    -0.0400 C.ar    
  12 C12           -4.1950     2.3414     0.3728 C.ar    
  13 C13           -5.5566     2.5678     0.2867 C.ar    
  14 C14           -6.0292     3.7713    -0.2111 C.ar    
  15 C15           -5.1419     4.7483    -0.6226 C.ar    
  16 C16           -3.7809     4.5303    -0.5327 C.ar    
  17 C17           -5.6604     6.0555    -1.1643 C.3     
  18 F18           -7.0593     6.0434    -1.1519 F       
  19 F19           -5.1960     7.1074    -0.3675 F       
  20 F20           -5.2071     6.2291    -2.4764 F       
  21 F21           -6.4263     1.6149     0.6877 F       
  22 H22            1.2824    -1.7400    -0.0840 H       
  23 H23            3.3097    -0.4185     0.4507 H       
  24 H24            3.1304     2.0160     0.7596 H       
  25 H25           -1.5558    -1.3087    -0.5144 H       
  26 H26           -1.3201     3.8439     0.1721 H       
  27 H27           -3.8262     1.4031     0.7601 H       
  28 H28           -7.0928     3.9465    -0.2780 H       
  29 H29           -3.0890     5.2966    -0.8498 H       
@<TRIPOS>BOND
   1    1    2 ar
   2    1    6 ar
   3    1    9 1
   4    2    3 ar
   5    2    8 1
   6    3    4 ar
   7    3   22 1
   8    4    5 ar
   9    4   23 1
  10    5    6 ar
  11    5   24 1
  12    7    8 1
  13    7    9 2
  14    8   25 1
  15    9   10 1
  16   10   11 1
  17   10   26 1
  18   11   12 ar
  19   11   16 ar
  20   12   13 ar
  21   12   27 1
  22   13   14 ar
  23   13   21 1
  24   14   15 ar
  25   14   28 1
  26   15   16 ar
  27   15   17 1
  28   16   29 1
  29   17   18 1
  30   17   19 1
  31   17   20 1

#	End of record

