#	Name: ASD04590483
#	Creating user name:	WinNT
#	Creation time:	15. 06. 2019 20:50

#	Modifying user name:	WinNT
#	Modification time:	15. 06. 2019 20:50

#	Program:	/corina/corina34_cracker 3.40 0067  02.08.2006

@<TRIPOS>MOLECULE
ASD04590483
  46   49    0    0    0
SMALL
NO_CHARGES


@<TRIPOS>ATOM
   1 C1            -0.6640     1.7263    -2.0161 C.ar    
   2 C2            -1.3440     0.8261    -2.8385 C.ar    
   3 C3            -2.5243    -0.0303    -0.9277 C.ar    
   4 C4            -1.8283     0.8703    -0.1030 C.ar    
   5 C5            -0.9056     1.7476    -0.6552 C.ar    
   6 N6            -3.3465    -0.7538    -0.1276 N.2     
   7 C7            -3.2056    -0.3649     1.1163 C.2     
   8 N8            -2.2767     0.6392     1.1853 N.pl3   
   9 C9            -3.9383    -0.9257     2.2704 C.2     
  10 C10           -4.8993    -1.9616     2.2210 C.2     
  11 C11           -5.3340    -2.1829     3.4852 C.2     
  12 N12           -4.6773    -1.3233     4.3081 N.pl3   
  13 N13           -3.8067    -0.5518     3.5281 N.2     
  14 N14           -5.3271    -2.6405     1.0670 N.am    
  15 C15           -6.2551    -3.6132     1.1625 C.2     
  16 O16           -6.7221    -3.9036     2.2471 O.2     
  17 C17           -2.2676    -0.0470    -2.3031 C.ar    
  18 N18           -6.6653    -4.2642     0.0560 N.am    
  19 C19           -7.5572    -5.3404     0.1659 C.ar    
  20 O20           -1.0945     0.8104    -4.1758 O.3     
  21 C21           -1.8241    -0.1348    -4.9609 C.3     
  22 C22           -8.9271    -5.1207     0.0867 C.ar    
  23 C23           -7.0733    -6.6303     0.3486 C.ar    
  24 C24           -7.9564    -7.6896     0.4567 C.ar    
  25 C25           -9.3189    -7.4664     0.3831 C.ar    
  26 C26           -9.8040    -6.1852     0.1957 C.ar    
  27 F27           -5.7421    -6.8495     0.4202 F       
  28 F28           -9.4020    -3.8692    -0.0960 F       
  29 O29            0.2447     2.5826    -2.5557 O.3     
  30 C30            0.9051     3.4776    -1.6586 C.3     
  31 H31           -0.3770     2.4454    -0.0228 H       
  32 H32           -1.9873     1.1018     1.9873 H       
  33 H33           -6.0717    -2.9123     3.7855 H       
  34 H34           -4.7893    -1.2581     5.2694 H       
  35 H35           -4.9546    -2.4088     0.2019 H       
  36 H36           -2.7913    -0.7413    -2.9435 H       
  37 H37           -6.3436    -3.9881    -0.8165 H       
  38 H38           -1.6059    -1.1436    -4.6104 H       
  39 H39           -2.8921     0.0602    -4.8645 H       
  40 H40           -1.5307    -0.0421    -6.0065 H       
  41 H41           -7.5811    -8.6924     0.5984 H       
  42 H42          -10.0059    -8.2954     0.4675 H       
  43 H43          -10.8689    -6.0147     0.1387 H       
  44 H44            0.1658     4.1082    -1.1647 H       
  45 H45            1.4517     2.9041    -0.9100 H       
  46 H46            1.6015     4.1033    -2.2168 H       
@<TRIPOS>BOND
   1    1    2 ar
   2    1   29 1
   3    1    5 ar
   4    2   17 ar
   5    2   20 1
   6    3    4 ar
   7    3    6 1
   8    3   17 ar
   9    4    5 ar
  10    4    8 1
  11    5   31 1
  12    6    7 2
  13    7    8 1
  14    7    9 1
  15    8   32 1
  16    9   10 1
  17    9   13 2
  18   10   11 2
  19   10   14 1
  20   11   12 1
  21   11   33 1
  22   12   13 1
  23   12   34 1
  24   14   15 am
  25   14   35 1
  26   15   16 2
  27   15   18 am
  28   17   36 1
  29   18   19 1
  30   18   37 1
  31   19   23 ar
  32   19   22 ar
  33   20   21 1
  34   21   38 1
  35   21   39 1
  36   21   40 1
  37   22   28 1
  38   22   26 ar
  39   23   24 ar
  40   23   27 1
  41   24   25 ar
  42   24   41 1
  43   25   26 ar
  44   25   42 1
  45   26   43 1
  46   29   30 1
  47   30   44 1
  48   30   45 1
  49   30   46 1

#	End of record

