#	Name: ASD01310060
#	Creating user name:	WinNT
#	Creation time:	15. 06. 2019 19:15

#	Modifying user name:	WinNT
#	Modification time:	15. 06. 2019 19:15

#	Program:	/corina/corina34_cracker 3.40 0067  02.08.2006

@<TRIPOS>MOLECULE
ASD01310060
  50   51    0    0    0
SMALL
NO_CHARGES


@<TRIPOS>ATOM
   1 C1            -0.0008     1.4146    -0.0609 C.ar    
   2 C2             0.0596     0.1230     0.4491 C.ar    
   3 C3             1.2553    -0.5601     0.4592 C.ar    
   4 C4             2.4087     0.0468    -0.0447 C.ar    
   5 C5             2.3437     1.3452    -0.5570 C.ar    
   6 C6             1.1443     2.0217    -0.5631 C.ar    
   7 O7            -1.1820     2.0825    -0.0738 O.3     
   8 C8            -1.1849    -0.5305     0.9923 C.3     
   9 C9            -1.4801    -1.8045     0.1981 C.3     
  10 C10           -0.9732    -0.8854     2.4654 C.3     
  11 C11            1.0731     3.4222    -1.1149 C.3     
  12 C12            2.0079     4.3331    -0.3166 C.3     
  13 C13            1.5010     3.4139    -2.5839 C.3     
  14 C14            3.6925    -0.6816    -0.0354 C.2     
  15 O15            3.7503    -1.8171    -0.4661 O.2     
  16 N16            4.8006    -0.0880     0.4506 N.am    
  17 C17            6.0723    -0.8213     0.5401 C.3     
  18 C18            4.7716     1.3123     0.8998 C.3     
  19 C19            5.3704     1.3840     2.3085 C.3     
  20 N20            6.7005     0.7605     2.3041 N.3     
  21 C21            6.6225    -0.6698     1.9623 C.3     
  22 C22            7.3798     0.9602     3.5912 C.3     
  23 H23            1.3016    -1.5633     0.8563 H       
  24 H24            3.2331     1.8178    -0.9470 H       
  25 H25           -1.3493     2.6012     0.7249 H       
  26 H26           -2.0256     0.1572     0.9015 H       
  27 H27           -1.6309    -1.5517    -0.8514 H       
  28 H28           -0.6394    -2.4923     0.2890 H       
  29 H29           -2.3803    -2.2772     0.5910 H       
  30 H30           -0.7629     0.0222     3.0312 H       
  31 H31           -1.8734    -1.3581     2.8583 H       
  32 H32           -0.1324    -1.5732     2.5563 H       
  33 H33            0.0509     3.7922    -1.0364 H       
  34 H34            3.0302     3.9631    -0.3952 H       
  35 H35            1.9565     5.3461    -0.7157 H       
  36 H36            1.7031     4.3390     0.7299 H       
  37 H37            0.8350     2.7650    -3.1526 H       
  38 H38            1.4495     4.4269    -2.9830 H       
  39 H39            2.5233     3.0440    -2.6625 H       
  40 H40            5.9029    -1.8760     0.3235 H       
  41 H41            6.7845    -0.4078    -0.1740 H       
  42 H42            5.3609     1.9272     0.2197 H       
  43 H43            3.7418     1.6687     0.9211 H       
  44 H44            5.4585     2.4268     2.6136 H       
  45 H45            4.7225     0.8539     3.0066 H       
  46 H46            5.9595    -1.1751     2.6645 H       
  47 H47            7.6167    -1.1134     2.0168 H       
  48 H48            6.7865     0.5125     4.3885 H       
  49 H49            8.3621     0.4887     3.5607 H       
  50 H50            7.4948     2.0276     3.7796 H       
@<TRIPOS>BOND
   1    1    2 ar
   2    1    6 ar
   3    1    7 1
   4    2    3 ar
   5    2    8 1
   6    3    4 ar
   7    3   23 1
   8    4    5 ar
   9    4   14 1
  10    5    6 ar
  11    5   24 1
  12    6   11 1
  13    7   25 1
  14    8    9 1
  15    8   10 1
  16    8   26 1
  17    9   27 1
  18    9   28 1
  19    9   29 1
  20   10   30 1
  21   10   31 1
  22   10   32 1
  23   11   12 1
  24   11   13 1
  25   11   33 1
  26   12   34 1
  27   12   35 1
  28   12   36 1
  29   13   37 1
  30   13   38 1
  31   13   39 1
  32   14   15 2
  33   14   16 am
  34   16   18 1
  35   16   17 1
  36   17   21 1
  37   17   40 1
  38   17   41 1
  39   18   19 1
  40   18   42 1
  41   18   43 1
  42   19   20 1
  43   19   44 1
  44   19   45 1
  45   20   21 1
  46   20   22 1
  47   21   46 1
  48   21   47 1
  49   22   48 1
  50   22   49 1
  51   22   50 1

#	End of record

