#	Name: ASD09116487
#	Creating user name:	WinNT
#	Creation time:	15. 06. 2019 21:21

#	Modifying user name:	WinNT
#	Modification time:	15. 06. 2019 21:21

#	Program:	/corina/corina34_cracker 3.40 0067  02.08.2006

@<TRIPOS>MOLECULE
ASD09116487
  74   80    0    0    0
SMALL
NO_CHARGES


@<TRIPOS>ATOM
   1 N1            -0.0590     1.5266    -0.5257 N.2     
   2 N2            -0.0821     0.2465    -1.1024 N.pl3   
   3 C3             1.1948     1.9102    -0.4954 C.2     
   4 N4             1.9590     0.9448    -1.0197 N.2     
   5 C5             1.2031    -0.0662    -1.3908 C.2     
   6 N6             1.6433    -1.2400    -1.9723 N.pl3   
   7 C7            -1.2076    -0.5471    -1.3321 C.ar    
   8 N8             1.6572     3.1285     0.0026 N.pl3   
   9 C9             3.0304     3.3743     0.0834 C.ar    
  10 C10            3.5135     4.6700    -0.0234 C.ar    
  11 C11            3.9174     2.3225     0.2768 C.ar    
  12 C12            5.2706     2.5747     0.3579 C.ar    
  13 C13            5.7522     3.8714     0.2482 C.ar    
  14 C14            4.8748     4.9181     0.0573 C.ar    
  15 N15           -1.1863    -1.4666    -2.2853 N.ar    
  16 N16           -2.1982    -2.2161    -2.5439 N.ar    
  17 C17           -3.3307    -2.1104    -1.8673 C.ar    
  18 C18           -3.4385    -1.1815    -0.8285 C.ar    
  19 C19           -2.3544    -0.3751    -0.5528 C.ar    
  20 C20           -4.5158    -2.9349    -2.1988 C.ar    
  21 C21           -5.7517    -2.3062    -2.3586 C.ar    
  22 C22           -5.8376    -0.8087    -2.2460 C.3     
  23 C23           -5.7906    -0.3562    -0.7891 C.3     
  24 C24           -4.7038    -1.1070    -0.0244 C.3     
  25 C25           -4.4124    -4.3136    -2.3467 C.ar    
  26 C26           -5.5410    -5.0571    -2.6333 C.ar    
  27 C27           -6.7674    -4.4326    -2.7703 C.ar    
  28 C28           -6.8731    -3.0594    -2.6322 C.ar    
  29 C29            7.2390     4.0958     0.3550 C.3     
  30 C30            7.5998     5.4756    -0.1955 C.3     
  31 N31            6.7188     6.4741     0.4307 N.3     
  32 C32            5.3521     6.3403    -0.0791 C.3     
  33 C33            7.2302     7.8347     0.2179 C.3     
  34 C34            6.2278     8.8507     0.7726 C.3     
  35 C35            8.5671     7.9986     0.9462 C.3     
  36 C36            9.0647     9.4352     0.7717 C.3     
  37 N37            8.0714    10.3685     1.3183 N.3     
  38 C38            6.7933    10.2626     0.6031 C.3     
  39 C39            8.5758    11.7480     1.2937 C.3     
  40 H40            2.5893    -1.3726    -2.1409 H       
  41 H41            1.0064    -1.9312    -2.2119 H       
  42 H42            1.0255     3.8050     0.2928 H       
  43 H43            2.8257     5.4896    -0.1704 H       
  44 H44            3.5484     1.3112     0.3636 H       
  45 H45            5.9604     1.7573     0.5081 H       
  46 H46           -2.3932     0.3672     0.2307 H       
  47 H47           -5.0023    -0.3621    -2.7853 H       
  48 H48           -6.7718    -0.4704    -2.6945 H       
  49 H49           -5.5821     0.7130    -0.7520 H       
  50 H50           -6.7564    -0.5491    -0.3221 H       
  51 H51           -5.0508    -2.1173     0.1923 H       
  52 H52           -4.5026    -0.5892     0.9134 H       
  53 H53           -3.4546    -4.8007    -2.2385 H       
  54 H54           -5.4653    -6.1280    -2.7510 H       
  55 H55           -7.6478    -5.0199    -2.9859 H       
  56 H56           -7.8340    -2.5782    -2.7395 H       
  57 H57            7.5401     4.0334     1.4007 H       
  58 H58            7.7625     3.3298    -0.2170 H       
  59 H59            8.6389     5.7042     0.0416 H       
  60 H60            7.4568     5.4876    -1.2761 H       
  61 H61            5.3303     6.6260    -1.1307 H       
  62 H62            4.6914     6.9996     0.4840 H       
  63 H63            7.3718     8.0079    -0.8489 H       
  64 H64            5.2869     8.7678     0.2286 H       
  65 H65            6.0560     8.6521     1.8305 H       
  66 H66            8.4320     7.7866     2.0068 H       
  67 H67            9.2974     7.3069     0.5263 H       
  68 H68           10.0094     9.5592     1.3011 H       
  69 H69            9.2127     9.6421    -0.2882 H       
  70 H70            6.9519    10.4656    -0.4561 H       
  71 H71            6.0883    10.9875     1.0100 H       
  72 H72            8.7971    12.0356     0.2659 H       
  73 H73            7.8205    12.4183     1.7039 H       
  74 H74            9.4839    11.8136     1.8929 H       
@<TRIPOS>BOND
   1    1    2 1
   2    1    3 2
   3    2    7 1
   4    2    5 1
   5    3    4 1
   6    3    8 1
   7    4    5 2
   8    5    6 1
   9    6   40 1
  10    6   41 1
  11    7   15 ar
  12    7   19 ar
  13    8    9 1
  14    8   42 1
  15    9   10 ar
  16    9   11 ar
  17   10   14 ar
  18   10   43 1
  19   11   12 ar
  20   11   44 1
  21   12   13 ar
  22   12   45 1
  23   13   14 ar
  24   13   29 1
  25   14   32 1
  26   15   16 ar
  27   16   17 ar
  28   17   18 ar
  29   17   20 1
  30   18   19 ar
  31   18   24 1
  32   19   46 1
  33   20   21 ar
  34   20   25 ar
  35   21   22 1
  36   21   28 ar
  37   22   23 1
  38   22   47 1
  39   22   48 1
  40   23   24 1
  41   23   49 1
  42   23   50 1
  43   24   51 1
  44   24   52 1
  45   25   26 ar
  46   25   53 1
  47   26   27 ar
  48   26   54 1
  49   27   28 ar
  50   27   55 1
  51   28   56 1
  52   29   30 1
  53   29   57 1
  54   29   58 1
  55   30   31 1
  56   30   59 1
  57   30   60 1
  58   31   32 1
  59   31   33 1
  60   32   61 1
  61   32   62 1
  62   33   34 1
  63   33   35 1
  64   33   63 1
  65   34   38 1
  66   34   64 1
  67   34   65 1
  68   35   36 1
  69   35   66 1
  70   35   67 1
  71   36   37 1
  72   36   68 1
  73   36   69 1
  74   37   38 1
  75   37   39 1
  76   38   70 1
  77   38   71 1
  78   39   72 1
  79   39   73 1
  80   39   74 1

#	End of record

