#	Name: ASD00100168
#	Creating user name:	WinNT
#	Creation time:	15. 06. 2019 18:30

#	Modifying user name:	WinNT
#	Modification time:	15. 06. 2019 18:30

#	Program:	/corina/corina34_cracker 3.40 0067  02.08.2006

@<TRIPOS>MOLECULE
ASD00100168
  25   25    0    0    0
SMALL
NO_CHARGES


@<TRIPOS>ATOM
   1 C1             0.0021    -0.0041     0.0020 C.1     
   2 C2            -0.0179     1.4678     0.0101 C.3     
   3 C3             1.4175     1.9974    -0.0007 C.3     
   4 N4             0.0175    -1.1399    -0.0042 N.1     
   5 C5             1.4001     3.4985     0.1313 C.ar    
   6 C6             1.3350     4.0843     1.3874 C.ar    
   7 C7             1.3191     5.4662     1.5056 C.ar    
   8 C8             1.3681     6.2559     0.3729 C.ar    
   9 C9             1.4325     5.6698    -0.8774 C.ar    
  10 C10            1.4547     4.2923    -0.9977 C.ar    
  11 O11            1.2864     3.3054     2.5000 O.3     
  12 C12            1.2205     3.9769     3.7597 C.3     
  13 N13           -0.7284     1.9544    -1.1800 N.3     
  14 H14           -0.5281     1.8193     0.9069 H       
  15 H15            1.9704     1.5656     0.8335 H       
  16 H16            1.8998     1.7207    -0.9383 H       
  17 H17            1.2681     5.9246     2.4822 H       
  18 H18            1.3558     7.3320     0.4644 H       
  19 H19            1.4701     6.2888    -1.7617 H       
  20 H20            1.5099     3.8369    -1.9754 H       
  21 H21            2.1012     4.6074     3.8818 H       
  22 H22            0.3233     4.5950     3.7954 H       
  23 H23            1.1866     3.2405     4.5626 H       
  24 H24           -0.8120     2.9598    -1.1653 H       
  25 H25           -0.2745     1.6416    -2.0252 H       
@<TRIPOS>BOND
   1    1    2 1
   2    1    4 3
   3    2    3 1
   4    2   13 1
   5    2   14 1
   6    3    5 1
   7    3   15 1
   8    3   16 1
   9    5    6 ar
  10    5   10 ar
  11    6    7 ar
  12    6   11 1
  13    7    8 ar
  14    7   17 1
  15    8    9 ar
  16    8   18 1
  17    9   10 ar
  18    9   19 1
  19   10   20 1
  20   11   12 1
  21   12   21 1
  22   12   22 1
  23   12   23 1
  24   13   24 1
  25   13   25 1

#	End of record

