#	Name: ASD02039035
#	Creating user name:	WinNT
#	Creation time:	15. 06. 2019 20:17

#	Modifying user name:	WinNT
#	Modification time:	15. 06. 2019 20:17

#	Program:	/corina/corina34_cracker 3.40 0067  02.08.2006

@<TRIPOS>MOLECULE
ASD02039035
  39   42    0    0    0
SMALL
NO_CHARGES


@<TRIPOS>ATOM
   1 N1            -0.0167     1.2912     0.1668 N.2     
   2 N2            -0.0038     0.0050     0.1933 N.2     
   3 C3             1.2121     1.7350     0.0619 C.2     
   4 O4             2.0225     0.6610     0.0220 O.3     
   5 C5             1.2227    -0.4198     0.1072 C.2     
   6 N6             1.6034     3.0606     0.0025 N.pl3   
   7 C7             0.6399     4.0708    -0.0888 C.ar    
   8 C8             1.6681    -1.8595     0.1039 C.3     
   9 O9             1.7050    -2.3436    -1.2401 O.3     
  10 C10            2.0897    -3.6351    -1.4206 C.ar    
  11 C11            2.1461    -4.1633    -2.6950 C.ar    
  12 C12            2.4303    -4.4170    -0.3197 C.ar    
  13 C13            2.8232    -5.7271    -0.4837 C.ar    
  14 C14            2.8819    -6.2805    -1.7582 C.ar    
  15 C15            2.5430    -5.4923    -2.8743 C.ar    
  16 C16            1.0177     5.4045     0.0125 C.ar    
  17 C17           -0.6951     3.7433    -0.2864 C.ar    
  18 C18           -1.6442     4.7425    -0.3766 C.ar    
  19 C19           -1.2664     6.0697    -0.2707 C.ar    
  20 C20            0.0634     6.4001    -0.0786 C.ar    
  21 N21            3.2725    -7.5912    -1.9434 N.am    
  22 C22            3.3296    -8.1286    -3.1744 C.2     
  23 C23            2.9956    -7.3822    -4.3246 C.2     
  24 C24            2.6087    -6.0877    -4.2103 C.2     
  25 O25            3.6790    -9.2896    -3.3002 O.2     
  26 Cl26          -2.4625     7.3227    -0.3858 Cl      
  27 Cl27           2.6861     5.8192     0.2536 Cl      
  28 H28            2.5457     3.2896     0.0241 H       
  29 H29            2.6626    -1.9332     0.5441 H       
  30 H30            0.9677    -2.4579     0.6865 H       
  31 H31            1.8852    -3.5542    -3.5478 H       
  32 H32            2.3865    -3.9920     0.6722 H       
  33 H33            3.0859    -6.3241     0.3771 H       
  34 H34           -0.9909     2.7079    -0.3699 H       
  35 H35           -2.6825     4.4879    -0.5303 H       
  36 H36            0.3555     7.4366     0.0037 H       
  37 H37            3.5096    -8.1325    -1.1741 H       
  38 H38            3.0520    -7.8427    -5.2999 H       
  39 H39            2.3511    -5.5095    -5.0853 H       
@<TRIPOS>BOND
   1    1    2 1
   2    1    3 2
   3    2    5 2
   4    3    4 1
   5    3    6 1
   6    4    5 1
   7    5    8 1
   8    6    7 1
   9    6   28 1
  10    7   16 ar
  11    7   17 ar
  12    8    9 1
  13    8   29 1
  14    8   30 1
  15    9   10 1
  16   10   11 ar
  17   10   12 ar
  18   11   15 ar
  19   11   31 1
  20   12   13 ar
  21   12   32 1
  22   13   14 ar
  23   13   33 1
  24   14   15 ar
  25   14   21 1
  26   15   24 1
  27   16   27 1
  28   16   20 ar
  29   17   18 ar
  30   17   34 1
  31   18   19 ar
  32   18   35 1
  33   19   20 ar
  34   19   26 1
  35   20   36 1
  36   21   22 am
  37   21   37 1
  38   22   23 1
  39   22   25 2
  40   23   24 2
  41   23   38 1
  42   24   39 1

#	End of record

