#	Name: ASD01917963
#	Creating user name:	WinNT
#	Creation time:	15. 06. 2019 20:10

#	Modifying user name:	WinNT
#	Modification time:	15. 06. 2019 20:10

#	Program:	/corina/corina34_cracker 3.40 0067  02.08.2006

@<TRIPOS>MOLECULE
ASD01917963
  42   45    0    0    0
SMALL
NO_CHARGES


@<TRIPOS>ATOM
   1 N1             4.7269    -0.5764    -2.1718 N.ar    
   2 C2             5.2111     0.1533    -3.1567 C.ar    
   3 N3             5.1525     1.4698    -3.1421 N.ar    
   4 C4             4.5991     2.1135    -2.1275 C.ar    
   5 C5             4.0755     1.3801    -1.0676 C.ar    
   6 C6             4.1580    -0.0076    -1.1217 C.ar    
   7 O7             3.4991     2.0032    -0.0063 O.3     
   8 C8             3.5511     3.3616     0.0422 C.2     
   9 N9             2.4081     5.4385    -0.0244 N.pl3   
  10 C10            2.4051     4.0769    -0.0677 C.2     
  11 C11            4.7886     3.9986     0.2108 C.2     
  12 C12            4.8384     5.3858     0.2603 C.2     
  13 C13            3.5840     6.1298     0.1331 C.2     
  14 C14            6.1193     6.0897     0.4367 C.2     
  15 N15            6.1475     7.4364     0.4824 N.am    
  16 C16            7.3430     8.0997     0.7547 C.ar    
  17 N17            8.4667     7.4082     0.8601 N.ar    
  18 C18            7.3440     9.4813     0.9072 C.ar    
  19 C19            8.5372    10.1284     1.1773 C.ar    
  20 C20            9.6943     9.3664     1.2861 C.ar    
  21 C21            9.6197     7.9956     1.1168 C.ar    
  22 O22            7.1522     5.4558     0.5412 O.2     
  23 C23            1.4319     6.3845    -0.1071 C.2     
  24 N24            2.0095     7.5537    -0.0123 N.2     
  25 N25            3.2802     7.4125     0.1362 N.2     
  26 C26            5.8508    -0.5377    -4.3334 C.3     
  27 C27           10.8708     7.1629     1.2274 C.3     
  28 F28           10.8799     9.9586     1.5485 F       
  29 H29            4.5548     3.1925    -2.1219 H       
  30 H30            3.7633    -0.6117    -0.3182 H       
  31 H31            1.4677     3.5553    -0.1929 H       
  32 H32            5.6939     3.4167     0.3016 H       
  33 H33            5.3359     7.9441     0.3258 H       
  34 H34            6.4258    10.0425     0.8158 H       
  35 H35            8.5684    11.2009     1.3005 H       
  36 H36            0.3751     6.2025    -0.2350 H       
  37 H37            5.0940    -0.7399    -5.0913 H       
  38 H38            6.6247     0.1039    -4.7548 H       
  39 H39            6.2963    -1.4768    -4.0051 H       
  40 H40           11.3382     7.0771     0.2464 H       
  41 H41           11.5645     7.6396     1.9199 H       
  42 H42           10.6147     6.1695     1.5960 H       
@<TRIPOS>BOND
   1    1    2 ar
   2    1    6 ar
   3    2    3 ar
   4    2   26 1
   5    3    4 ar
   6    4    5 ar
   7    4   29 1
   8    5    6 ar
   9    5    7 1
  10    6   30 1
  11    7    8 1
  12    8   11 1
  13    8   10 2
  14    9   10 1
  15    9   23 1
  16    9   13 1
  17   10   31 1
  18   11   12 2
  19   11   32 1
  20   12   13 1
  21   12   14 1
  22   13   25 2
  23   14   15 am
  24   14   22 2
  25   15   16 1
  26   15   33 1
  27   16   18 ar
  28   16   17 ar
  29   17   21 ar
  30   18   19 ar
  31   18   34 1
  32   19   20 ar
  33   19   35 1
  34   20   21 ar
  35   20   28 1
  36   21   27 1
  37   23   24 2
  38   23   36 1
  39   24   25 1
  40   26   37 1
  41   26   38 1
  42   26   39 1
  43   27   40 1
  44   27   41 1
  45   27   42 1

#	End of record

