#	Name: ASD01911193
#	Creating user name:	WinNT
#	Creation time:	15. 06. 2019 19:57

#	Modifying user name:	WinNT
#	Modification time:	15. 06. 2019 19:57

#	Program:	/corina/corina34_cracker 3.40 0067  02.08.2006

@<TRIPOS>MOLECULE
ASD01911193
  46   49    0    0    0
SMALL
NO_CHARGES


@<TRIPOS>ATOM
   1 C1             0.9176     0.7482     0.1665 C.ar    
   2 N2             0.6866    -0.5436     0.0825 N.ar    
   3 C3             1.4755    -1.3480    -0.6196 C.ar    
   4 C4             2.5833    -0.8408    -1.2946 C.ar    
   5 C5             2.8512     0.5174    -1.2238 C.ar    
   6 C6             2.0015     1.3209    -0.4800 C.ar    
   7 C7             1.1755    -2.7971    -0.6853 C.2     
   8 N8             0.1053    -3.2939    -0.0339 N.am    
   9 C9            -0.2330    -4.6439    -0.1723 C.ar    
  10 C10           -1.5556    -5.0467    -0.0419 C.ar    
  11 C11           -1.8868    -6.3805    -0.1796 C.ar    
  12 C12           -0.9024    -7.3149    -0.4472 C.ar    
  13 C13            0.4165    -6.9166    -0.5773 C.ar    
  14 C14            0.7526    -5.5837    -0.4463 C.ar    
  15 C15           -2.6284    -4.0294     0.2502 C.3     
  16 N16           -3.0214    -3.3632    -0.9940 N.am    
  17 C17           -3.9199    -3.8357    -1.8762 C.2     
  18 C18           -4.0314    -2.8687    -2.9926 C.2     
  19 C19           -3.1897    -1.8622    -2.7195 C.2     
  20 C20           -2.5433    -2.1828    -1.4261 C.2     
  21 O21           -1.7172    -1.4996    -0.8563 O.2     
  22 O22           -4.5346    -4.8777    -1.7750 O.2     
  23 O23            1.8943    -3.5380    -1.3266 O.2     
  24 Br24          -1.3598    -9.1401    -0.6351 Br      
  25 C25           -4.7442    -2.6216    -4.3029 C.3     
  26 C26           -4.5405    -1.1173    -4.5901 C.3     
  27 C27           -3.2379    -0.8205    -3.8143 C.3     
  28 C28           -3.2870     0.5843    -3.2100 C.3     
  29 H29            0.2511     1.3720     0.7435 H       
  30 H30            3.2246    -1.4965    -1.8649 H       
  31 H31            3.7029     0.9398    -1.7362 H       
  32 H32            2.1822     2.3831    -0.4050 H       
  33 H33           -0.4304    -2.7152     0.5310 H       
  34 H34           -2.9152    -6.6943    -0.0779 H       
  35 H35            1.1831    -7.6483    -0.7856 H       
  36 H36            1.7820    -5.2733    -0.5483 H       
  37 H37           -3.4946    -4.5291     0.6840 H       
  38 H38           -2.2459    -3.2895     0.9533 H       
  39 H39           -4.2988    -3.2225    -5.0957 H       
  40 H40           -5.8059    -2.8484    -4.2053 H       
  41 H41           -4.4082    -0.9385    -5.6572 H       
  42 H42           -5.3705    -0.5296    -4.1978 H       
  43 H43           -2.3741    -0.9211    -4.4715 H       
  44 H44           -4.1474     0.6641    -2.5456 H       
  45 H45           -2.3733     0.7690    -2.6450 H       
  46 H46           -3.3753     1.3206    -4.0089 H       
@<TRIPOS>BOND
   1    1    2 ar
   2    1    6 ar
   3    1   29 1
   4    2    3 ar
   5    3    4 ar
   6    3    7 1
   7    4    5 ar
   8    4   30 1
   9    5    6 ar
  10    5   31 1
  11    6   32 1
  12    7    8 am
  13    7   23 2
  14    8    9 1
  15    8   33 1
  16    9   10 ar
  17    9   14 ar
  18   10   11 ar
  19   10   15 1
  20   11   12 ar
  21   11   34 1
  22   12   13 ar
  23   12   24 1
  24   13   14 ar
  25   13   35 1
  26   14   36 1
  27   15   16 1
  28   15   37 1
  29   15   38 1
  30   16   17 am
  31   16   20 am
  32   17   18 1
  33   17   22 2
  34   18   19 2
  35   18   25 1
  36   19   20 1
  37   19   27 1
  38   20   21 2
  39   25   26 1
  40   25   39 1
  41   25   40 1
  42   26   27 1
  43   26   41 1
  44   26   42 1
  45   27   28 1
  46   27   43 1
  47   28   44 1
  48   28   45 1
  49   28   46 1

#	End of record

