#	Name: ASD01884789
#	Creating user name:	WinNT
#	Creation time:	15. 06. 2019 19:48

#	Modifying user name:	WinNT
#	Modification time:	15. 06. 2019 19:48

#	Program:	/corina/corina34_cracker 3.40 0067  02.08.2006

@<TRIPOS>MOLECULE
ASD01884789
  50   53    0    0    0
SMALL
NO_CHARGES


@<TRIPOS>ATOM
   1 C1            -0.4381     1.2686     0.2477 C.3     
   2 C2            -0.1565    -0.2339     0.1840 C.3     
   3 H3            -1.0900    -0.7845     0.2997 H       
   4 C4             0.4757    -0.5781    -1.1644 C.3     
   5 N5             1.0586    -1.9152    -1.1851 N.am    
   6 C6             1.7489    -2.4082    -0.1288 C.2     
   7 O7             2.4046    -3.4303    -0.2111 O.2     
   8 C8             1.6632    -1.6431     1.1185 C.2     
   9 C9             2.3592    -1.7472     2.3066 C.2     
  10 C10            1.8683    -0.7334     3.1595 C.2     
  11 N11            0.9340    -0.0658     2.5271 N.2     
  12 N12            0.7664    -0.6045     1.2590 N.pl3   
  13 C13            3.3822    -2.7005     2.6154 C.1     
  14 C14            4.2209    -3.4820     2.8685 C.1     
  15 C15            5.2440    -4.4353     3.1772 C.ar    
  16 C16            5.6369    -5.3846     2.2312 C.ar    
  17 N17            6.5785    -6.2614     2.5152 N.ar    
  18 C18            7.1819    -6.2764     3.6949 C.ar    
  19 N19            8.1687    -7.2197     3.9464 N.pl3   
  20 C20            6.8407    -5.3589     4.6862 C.ar    
  21 C21            5.8710    -4.4257     4.4334 C.ar    
  22 C22            5.4822    -3.4149     5.4813 C.3     
  23 O23            6.2665    -3.6226     6.6577 O.3     
  24 C24            0.9004    -2.7090    -2.3251 C.ar    
  25 C25            0.1208    -3.8572    -2.2707 C.ar    
  26 C26           -0.0343    -4.6395    -3.3985 C.ar    
  27 C27            0.5854    -4.2812    -4.5812 C.ar    
  28 C28            1.3636    -3.1378    -4.6392 C.ar    
  29 Cl29           2.1404    -2.6919    -6.1263 Cl      
  30 C30            1.5179    -2.3479    -3.5157 C.ar    
  31 C31            0.4139    -5.1372    -5.8095 C.3     
  32 F32           -0.4080    -6.2281    -5.5066 F       
  33 F33           -0.1739    -4.3791    -6.8279 F       
  34 F34            1.6642    -5.5991    -6.2344 F       
  35 H35            0.4958     1.8186     0.1320 H       
  36 H36           -1.1236     1.5441    -0.5537 H       
  37 H37           -0.8872     1.5137     1.2102 H       
  38 H38           -0.2892    -0.5153    -1.9385 H       
  39 H39            1.2566     0.1501    -1.3836 H       
  40 H40            2.2069    -0.5403     4.1666 H       
  41 H41            5.1652    -5.4004     1.2598 H       
  42 H42            8.4120    -7.8616     3.2611 H       
  43 H43            8.6150    -7.2370     4.8075 H       
  44 H44            7.3394    -5.3809     5.6439 H       
  45 H45            5.6592    -2.4094     5.0995 H       
  46 H46            4.4259    -3.5308     5.7237 H       
  47 H47            6.0691    -3.0059     7.3759 H       
  48 H48           -0.3635    -4.1383    -1.3472 H       
  49 H49           -0.6402    -5.5326    -3.3562 H       
  50 H50            2.1211    -1.4533    -3.5624 H       
@<TRIPOS>BOND
   1    1    2 1
   2    1   35 1
   3    1   36 1
   4    1   37 1
   5    2    3 1
   6    2   12 1
   7    2    4 1
   8    4    5 1
   9    4   38 1
  10    4   39 1
  11    5    6 am
  12    5   24 1
  13    6    7 2
  14    6    8 1
  15    8   12 1
  16    8    9 2
  17    9   10 1
  18    9   13 1
  19   10   11 2
  20   10   40 1
  21   11   12 1
  22   13   14 3
  23   14   15 1
  24   15   21 ar
  25   15   16 ar
  26   16   17 ar
  27   16   41 1
  28   17   18 ar
  29   18   19 1
  30   18   20 ar
  31   19   42 1
  32   19   43 1
  33   20   21 ar
  34   20   44 1
  35   21   22 1
  36   22   23 1
  37   22   45 1
  38   22   46 1
  39   23   47 1
  40   24   30 ar
  41   24   25 ar
  42   25   26 ar
  43   25   48 1
  44   26   27 ar
  45   26   49 1
  46   27   28 ar
  47   27   31 1
  48   28   29 1
  49   28   30 ar
  50   30   50 1
  51   31   32 1
  52   31   33 1
  53   31   34 1

#	End of record

