#	Name: ASD03731892
#	Creating user name:	WinNT
#	Creation time:	15. 06. 2019 20:46

#	Modifying user name:	WinNT
#	Modification time:	15. 06. 2019 20:46

#	Program:	/corina/corina34_cracker 3.40 0067  02.08.2006

@<TRIPOS>MOLECULE
ASD03731892
  26   27    0    0    0
SMALL
NO_CHARGES


@<TRIPOS>ATOM
   1 C1            -0.1153     1.4085    -0.8500 C.2     
   2 C2            -0.0715    -0.0487    -0.6474 C.ar    
   3 C3             1.1610    -0.7141    -0.5951 C.ar    
   4 C4             1.1970    -2.0793    -0.4051 C.ar    
   5 C5             0.0118    -2.7951    -0.2656 C.ar    
   6 C6            -1.2159    -2.1355    -0.3173 C.ar    
   7 C7            -1.2602    -0.7728    -0.5007 C.ar    
   8 O8             0.9181     2.0364    -0.9722 O.2     
   9 O9            -1.3017     2.0458    -0.9056 O.3     
  10 F10            2.3116    -0.0192    -0.7310 F       
  11 S11            0.0623    -4.5397    -0.0237 S.3     
  12 C12            1.7759    -4.9137    -0.1921 C.ar    
  13 C13            2.5910    -4.9646     0.9321 C.ar    
  14 C14            3.9343    -5.2587     0.7968 C.ar    
  15 C15            4.4678    -5.5025    -0.4583 C.ar    
  16 C16            3.6578    -5.4523    -1.5788 C.ar    
  17 C17            2.3133    -5.1640    -1.4486 C.ar    
  18 Cl18           6.1560    -5.8712    -0.6254 Cl      
  19 Cl19           4.9541    -5.3220     2.2002 Cl      
  20 Cl20          -2.6905    -3.0346    -0.1425 Cl      
  21 H21            2.1458    -2.5936    -0.3649 H       
  22 H22           -2.2116    -0.2628    -0.5357 H       
  23 H23           -1.2799     3.0032    -1.0401 H       
  24 H24            2.1752    -4.7742     1.9105 H       
  25 H25            4.0765    -5.6428    -2.5559 H       
  26 H26            1.6810    -5.1294    -2.3234 H       
@<TRIPOS>BOND
   1    1    2 1
   2    1    8 2
   3    1    9 1
   4    2    3 ar
   5    2    7 ar
   6    3    4 ar
   7    3   10 1
   8    4    5 ar
   9    4   21 1
  10    5    6 ar
  11    5   11 1
  12    6    7 ar
  13    6   20 1
  14    7   22 1
  15    9   23 1
  16   11   12 1
  17   12   13 ar
  18   12   17 ar
  19   13   14 ar
  20   13   24 1
  21   14   15 ar
  22   14   19 1
  23   15   16 ar
  24   15   18 1
  25   16   17 ar
  26   16   25 1
  27   17   26 1

#	End of record

