#	Name: ASD05720012
#	Creating user name:	WinNT
#	Creation time:	15. 06. 2019 21:01

#	Modifying user name:	WinNT
#	Modification time:	15. 06. 2019 21:01

#	Program:	/corina/corina34_cracker 3.40 0067  02.08.2006

@<TRIPOS>MOLECULE
ASD05720012
  40   41    0    0    0
SMALL
NO_CHARGES


@<TRIPOS>ATOM
   1 N1            -0.0170     1.4001     0.0097 N.pl3   
   2 N2             0.0021    -0.0041     0.0020 N.2     
   3 C3             1.2665    -0.3650    -0.0120 C.2     
   4 N4             2.0279     0.7375    -0.0133 N.2     
   5 C5             1.2673     1.8001    -0.0004 C.2     
   6 C6            -1.2027     2.2604     0.0203 C.3     
   7 O7            -0.7971     3.6306     0.0252 O.3     
   8 C8            -1.8838     4.5585     0.0356 C.3     
   9 C9            -1.3350     5.9867     0.0400 C.3     
  10 Si10          -2.7518     7.1963     0.0535 Si      
  11 C11           -3.7863     6.9239     1.5787 C.3     
  12 C12           -2.0835     8.9354     0.0589 C.3     
  13 C13           -3.8023     6.9394    -1.4635 C.3     
  14 C14            1.7672    -1.7618    -0.0243 C.ar    
  15 C15            3.1389    -2.0135    -0.0387 C.ar    
  16 C16            3.5990    -3.3156    -0.0502 C.ar    
  17 C17            2.7013    -4.3690    -0.0473 C.ar    
  18 C18            1.3392    -4.1239    -0.0330 C.ar    
  19 C19            0.8688    -2.8264    -0.0157 C.ar    
  20 Cl20           4.2655    -0.6927    -0.0429 Cl      
  21 Br21           3.3380    -6.1495    -0.0636 Br      
  22 H22            1.6110     2.8240     0.0013 H       
  23 H23           -1.8032     2.0624    -0.8675 H       
  24 H24           -1.7939     2.0534     0.9124 H       
  25 H25           -2.4984     4.4082    -0.8520 H       
  26 H26           -2.4891     4.3991     0.9279 H       
  27 H27           -0.7204     6.1370     0.9275 H       
  28 H28           -0.7297     6.1461    -0.8524 H       
  29 H29           -3.1717     7.0743     2.4663 H       
  30 H30           -4.6153     7.6317     1.5867 H       
  31 H31           -4.1773     5.9065     1.5756 H       
  32 H32           -1.4782     9.0947    -0.8335 H       
  33 H33           -2.9124     9.6431     0.0668 H       
  34 H34           -1.4689     9.0857     0.9464 H       
  35 H35           -4.1932     5.9219    -1.4666 H       
  36 H36           -4.6312     7.6472    -1.4555 H       
  37 H37           -3.1970     7.0988    -2.3558 H       
  38 H38            4.6609    -3.5121    -0.0617 H       
  39 H39            0.6431    -4.9496    -0.0312 H       
  40 H40           -0.1944    -2.6368     0.0000 H       
@<TRIPOS>BOND
   1    1    2 1
   2    1    5 1
   3    1    6 1
   4    2    3 2
   5    3    4 1
   6    3   14 1
   7    4    5 2
   8    5   22 1
   9    6    7 1
  10    6   23 1
  11    6   24 1
  12    7    8 1
  13    8    9 1
  14    8   25 1
  15    8   26 1
  16    9   10 1
  17    9   27 1
  18    9   28 1
  19   10   11 1
  20   10   12 1
  21   10   13 1
  22   11   29 1
  23   11   30 1
  24   11   31 1
  25   12   32 1
  26   12   33 1
  27   12   34 1
  28   13   35 1
  29   13   36 1
  30   13   37 1
  31   14   15 ar
  32   14   19 ar
  33   15   16 ar
  34   15   20 1
  35   16   17 ar
  36   16   38 1
  37   17   18 ar
  38   17   21 1
  39   18   19 ar
  40   18   39 1
  41   19   40 1

#	End of record

