#	Name: ASD01810049
#	Creating user name:	WinNT
#	Creation time:	15. 06. 2019 19:23

#	Modifying user name:	WinNT
#	Modification time:	15. 06. 2019 19:23

#	Program:	/corina/corina34_cracker 3.40 0067  02.08.2006

@<TRIPOS>MOLECULE
ASD01810049
  62   66    0    0    0
SMALL
NO_CHARGES


@<TRIPOS>ATOM
   1 C1             0.0732     1.1632    -0.9649 C.ar    
   2 C2             0.1183    -0.2168    -1.0590 C.ar    
   3 C3             1.3324    -0.8759    -1.0561 C.ar    
   4 C4             2.5104    -0.1518    -0.9584 C.ar    
   5 C5             2.4649     1.2409    -0.8634 C.ar    
   6 C6             1.2419     1.8934    -0.8671 C.ar    
   7 N7             3.8552    -0.5135    -0.9295 N.am    
   8 C8             4.5936     0.6072    -0.8219 C.2     
   9 N9             3.7835     1.6817    -0.7797 N.am    
  10 C10            4.2153     3.0770    -0.6663 C.3     
  11 C11            5.0053     3.2642     0.6320 C.3     
  12 C12            5.5055     4.7081     0.7154 C.3     
  13 N13            6.3583     4.9998    -0.4440 N.3     
  14 C14            5.6084     4.8727    -1.7001 C.3     
  15 C15            5.1113     3.4337    -1.8556 C.3     
  16 O16            5.8088     0.6434    -0.7709 O.2     
  17 C17            6.9680     6.3312    -0.3273 C.3     
  18 C18            7.9442     6.5503    -1.4865 C.3     
  19 C19            8.5301     7.9610    -1.3938 C.3     
  20 N20            7.4445     8.9481    -1.4513 N.3     
  21 C21            6.5204     8.7875    -0.3214 C.3     
  22 C22            5.8744     7.4015    -0.3821 C.3     
  23 C23            7.9785    10.3156    -1.5043 C.3     
  24 C24            6.8895    11.2638    -1.9355 C.ar    
  25 C25            6.4921    11.3039    -3.2587 C.ar    
  26 C26            5.4930    12.1739    -3.6543 C.ar    
  27 C27            4.8914    13.0032    -2.7266 C.ar    
  28 C28            5.2884    12.9624    -1.4029 C.ar    
  29 C29            6.2841    12.0897    -1.0066 C.ar    
  30 C30            7.1480    10.3997    -4.2702 C.3     
  31 H31           -0.8795     1.6718    -0.9723 H       
  32 H32           -0.7996    -0.7808    -1.1348 H       
  33 H33            1.3637    -1.9530    -1.1294 H       
  34 H34            1.2028     2.9702    -0.7941 H       
  35 H35            4.2008    -1.4185    -0.9781 H       
  36 H36            3.3420     3.7292    -0.6585 H       
  37 H37            4.3598     3.0529     1.4845 H       
  38 H38            5.8563     2.5832     0.6415 H       
  39 H39            4.6535     5.3879     0.7197 H       
  40 H40            6.0805     4.8410     1.6318 H       
  41 H41            4.7559     5.5517    -1.6845 H       
  42 H42            6.2582     5.1250    -2.5381 H       
  43 H43            5.9640     2.7553    -1.8852 H       
  44 H44            4.5415     3.3434    -2.7804 H       
  45 H45            7.5039     6.4048     0.6190 H       
  46 H46            8.7489     5.8174    -1.4280 H       
  47 H47            7.4161     6.4371    -2.4333 H       
  48 H48            9.0697     8.0691    -0.4529 H       
  49 H49            9.2148     8.1253    -2.2258 H       
  50 H50            7.0694     8.8917     0.6144 H       
  51 H51            5.7453     9.5521    -0.3747 H       
  52 H52            5.3138     7.3016    -1.3115 H       
  53 H53            5.2003     7.2767     0.4654 H       
  54 H54            8.3405    10.6028    -0.5171 H       
  55 H55            8.8005    10.3572    -2.2189 H       
  56 H56            5.1829    12.2057    -4.6884 H       
  57 H57            4.1115    13.6833    -3.0358 H       
  58 H58            4.8185    13.6107    -0.6780 H       
  59 H59            6.5942    12.0578     0.0275 H       
  60 H60            6.6617     9.4243    -4.2549 H       
  61 H61            7.0535    10.8373    -5.2640 H       
  62 H62            8.2033    10.2834    -4.0233 H       
@<TRIPOS>BOND
   1    1    2 ar
   2    1    6 ar
   3    1   31 1
   4    2    3 ar
   5    2   32 1
   6    3    4 ar
   7    3   33 1
   8    4    5 ar
   9    4    7 1
  10    5    6 ar
  11    5    9 1
  12    6   34 1
  13    7    8 am
  14    7   35 1
  15    8    9 am
  16    8   16 2
  17    9   10 1
  18   10   11 1
  19   10   15 1
  20   10   36 1
  21   11   12 1
  22   11   37 1
  23   11   38 1
  24   12   13 1
  25   12   39 1
  26   12   40 1
  27   13   14 1
  28   13   17 1
  29   14   15 1
  30   14   41 1
  31   14   42 1
  32   15   43 1
  33   15   44 1
  34   17   18 1
  35   17   22 1
  36   17   45 1
  37   18   19 1
  38   18   46 1
  39   18   47 1
  40   19   20 1
  41   19   48 1
  42   19   49 1
  43   20   21 1
  44   20   23 1
  45   21   22 1
  46   21   50 1
  47   21   51 1
  48   22   52 1
  49   22   53 1
  50   23   24 1
  51   23   54 1
  52   23   55 1
  53   24   25 ar
  54   24   29 ar
  55   25   26 ar
  56   25   30 1
  57   26   27 ar
  58   26   56 1
  59   27   28 ar
  60   27   57 1
  61   28   29 ar
  62   28   58 1
  63   29   59 1
  64   30   60 1
  65   30   61 1
  66   30   62 1

#	End of record

