#	Name: ASD01910505
#	Creating user name:	WinNT
#	Creation time:	15. 06. 2019 19:56

#	Modifying user name:	WinNT
#	Modification time:	15. 06. 2019 19:56

#	Program:	/corina/corina34_cracker 3.40 0067  02.08.2006

@<TRIPOS>MOLECULE
ASD01910505
  41   44    0    0    0
SMALL
NO_CHARGES


@<TRIPOS>ATOM
   1 N1             0.1297     0.6107    -0.2437 N.2     
   2 C2             0.2790    -0.6905    -0.2064 C.2     
   3 N3             1.6091    -0.9373    -0.1540 N.2     
   4 C4             2.1855     0.2383    -0.1629 C.2     
   5 O5             1.2136     1.1544    -0.2194 O.3     
   6 C6            -0.8012    -1.6988    -0.2184 C.2     
   7 C7            -2.1387    -1.4416    -0.2710 C.2     
   8 C8            -2.8023    -2.6778    -0.2637 C.2     
   9 C9            -1.8632    -3.6480    -0.2074 C.2     
  10 N10           -0.6357    -3.0606    -0.1845 N.pl3   
  11 C11            3.9977     1.3409     1.1251 C.3     
  12 C12            3.6675     0.5081    -0.1175 C.3     
  13 C13            4.0844     1.2815    -1.3706 C.3     
  14 C14            5.5947     1.5275    -1.3413 C.3     
  15 C15            5.9468     2.3718    -0.1125 C.3     
  16 N16            5.4207     1.7046     1.0862 N.am    
  17 C17            6.2282     1.4311     2.1300 C.2     
  18 C18            5.6613     0.8793     3.3777 C.ar    
  19 O19            7.4230     1.6385     2.0449 O.2     
  20 C20            6.3244    -0.1345     4.0697 C.ar    
  21 N21            5.8202    -0.6273     5.1820 N.ar    
  22 C22            4.6797    -0.1886     5.6848 C.ar    
  23 C23            3.9610     0.8178     5.0555 C.ar    
  24 C24            4.4518     1.3700     3.8881 C.ar    
  25 F25            4.2058    -0.7285     6.8290 F       
  26 H26           -2.6018    -0.4667    -0.3106 H       
  27 H27           -3.8715    -2.8271    -0.2968 H       
  28 H28           -2.0545    -4.7108    -0.1875 H       
  29 H29            0.2141    -3.5266    -0.1448 H       
  30 H30            3.3894     2.2453     1.1311 H       
  31 H31            3.7946     0.7555     2.0219 H       
  32 H32            4.2088    -0.4371    -0.0764 H       
  33 H33            3.8281     0.7017    -2.2573 H       
  34 H34            3.5613     2.2374    -1.3982 H       
  35 H35            6.1178     0.5727    -1.2887 H       
  36 H36            5.8945     2.0578    -2.2452 H       
  37 H37            7.0297     2.4666    -0.0324 H       
  38 H38            5.4974     3.3603    -0.2074 H       
  39 H39            7.2593    -0.5189     3.6895 H       
  40 H40            3.0300     1.1684     5.4759 H       
  41 H41            3.9133     2.1549     3.3778 H       
@<TRIPOS>BOND
   1    1    2 2
   2    1    5 1
   3    2    3 1
   4    2    6 1
   5    3    4 2
   6    4    5 1
   7    4   12 1
   8    6    7 2
   9    6   10 1
  10    7    8 1
  11    7   26 1
  12    8    9 2
  13    8   27 1
  14    9   10 1
  15    9   28 1
  16   10   29 1
  17   11   12 1
  18   11   16 1
  19   11   30 1
  20   11   31 1
  21   12   13 1
  22   12   32 1
  23   13   14 1
  24   13   33 1
  25   13   34 1
  26   14   15 1
  27   14   35 1
  28   14   36 1
  29   15   16 1
  30   15   37 1
  31   15   38 1
  32   16   17 am
  33   17   18 1
  34   17   19 2
  35   18   20 ar
  36   18   24 ar
  37   20   21 ar
  38   20   39 1
  39   21   22 ar
  40   22   23 ar
  41   22   25 1
  42   23   24 ar
  43   23   40 1
  44   24   41 1

#	End of record

