#	Name: ASD01881665
#	Creating user name:	WinNT
#	Creation time:	15. 06. 2019 19:43

#	Modifying user name:	WinNT
#	Modification time:	15. 06. 2019 19:43

#	Program:	/corina/corina34_cracker 3.40 0067  02.08.2006

@<TRIPOS>MOLECULE
ASD01881665
  23   23    0    0    0
SMALL
NO_CHARGES


@<TRIPOS>ATOM
   1 C1            -0.0184     1.5028     0.0103 C.2     
   2 C2             0.0021    -0.0041     0.0020 C.3     
   3 O3             1.0197     2.1211     0.0037 O.2     
   4 O4            -1.1898     2.1580     0.0194 O.3     
   5 N5             1.3935    -0.4748    -0.0138 N.3     
   6 C6             1.4526    -1.9426    -0.0222 C.3     
   7 C7             2.8924    -2.3873    -0.0384 C.ar    
   8 C8             3.5640    -2.5976     1.1515 C.ar    
   9 C9             4.8845    -3.0059     1.1372 C.ar    
  10 C10            5.5339    -3.2041    -0.0680 C.ar    
  11 C11            4.8614    -2.9935    -1.2583 C.ar    
  12 C12            3.5395    -2.5903    -1.2430 C.ar    
  13 Br13           7.3406    -3.7621    -0.0882 Br      
  14 H14           -0.4983    -0.3791     0.8948 H       
  15 H15           -0.5153    -0.3696    -0.8850 H       
  16 H16           -1.1523     3.1243     0.0245 H       
  17 H17            1.8972    -0.0881    -0.7979 H       
  18 H18            0.9623    -2.3311     0.8704 H       
  19 H19            0.9453    -2.3216    -0.9095 H       
  20 H20            3.0570    -2.4425     2.0924 H       
  21 H21            5.4092    -3.1699     2.0668 H       
  22 H22            5.3682    -3.1477    -2.1995 H       
  23 H23            3.0131    -2.4298    -2.1724 H       
@<TRIPOS>BOND
   1    1    2 1
   2    1    3 2
   3    1    4 1
   4    2    5 1
   5    2   14 1
   6    2   15 1
   7    4   16 1
   8    5    6 1
   9    5   17 1
  10    6    7 1
  11    6   18 1
  12    6   19 1
  13    7    8 ar
  14    7   12 ar
  15    8    9 ar
  16    8   20 1
  17    9   10 ar
  18    9   21 1
  19   10   11 ar
  20   10   13 1
  21   11   12 ar
  22   11   22 1
  23   12   23 1

#	End of record

