#	Name: ASD02039443
#	Creating user name:	WinNT
#	Creation time:	15. 06. 2019 20:18

#	Modifying user name:	WinNT
#	Modification time:	15. 06. 2019 20:18

#	Program:	/corina/corina34_cracker 3.40 0067  02.08.2006

@<TRIPOS>MOLECULE
ASD02039443
  49   52    0    0    0
SMALL
NO_CHARGES


@<TRIPOS>ATOM
   1 C1            -0.3872     1.6000     0.3342 C.2     
   2 O2            -0.6568     0.2964     0.4938 O.3     
   3 C3             0.9665     2.2153     0.0893 C.3     
   4 N4             1.5932     2.5432     1.3722 N.am    
   5 C5             2.4696     1.5702     2.0292 C.3     
   6 C6             1.3635     3.7398     1.9481 C.2     
   7 C7             0.5511     4.7503     1.2485 C.2     
   8 C8             0.3306     6.0326     1.6585 C.2     
   9 N9            -0.1095     4.5767     0.0753 N.2     
  10 C10           -0.7168     5.6859    -0.2339 C.2     
  11 N11           -0.4647     6.6112     0.7282 N.pl3   
  12 O12            1.8268     3.9856     3.0455 O.2     
  13 C13           -0.9645     7.9881     0.7546 C.3     
  14 N14           -1.8359     0.0998     0.6753 N.2     
  15 C15           -2.5150     1.2203     0.6640 C.2     
  16 C16           -1.5663     2.2549     0.4297 C.2     
  17 C17           -3.9783     1.3780     0.8515 C.ar    
  18 C18           -4.7793     0.2580     1.0679 C.ar    
  19 C19           -6.1389     0.4076     1.2418 C.ar    
  20 C20           -6.7103     1.6725     1.2015 C.ar    
  21 C21           -5.9149     2.7900     0.9856 C.ar    
  22 C22           -4.5538     2.6471     0.8172 C.ar    
  23 O23           -8.0500     1.8169     1.3731 O.3     
  24 C24           -8.5713     3.1464     1.3198 C.3     
  25 F25           -8.2898     3.7079     0.0697 F       
  26 F26           -9.9563     3.1124     1.5145 F       
  27 F27           -7.9782     3.9205     2.3229 F       
  28 C28            3.8483     2.1384     2.4050 C.3     
  29 C29            3.7315     1.3427     3.7158 C.3     
  30 C30            2.2062     1.4237     3.5371 C.3     
  31 H31            1.5947     1.5077    -0.4517 H       
  32 H32            0.8510     3.1241    -0.5014 H       
  33 H33            2.5190     0.6193     1.4987 H       
  34 H34            0.7163     6.4971     2.5539 H       
  35 H35           -1.3210     5.8456    -1.1148 H       
  36 H36           -1.9199     8.0178     1.2784 H       
  37 H37           -0.2468     8.6252     1.2714 H       
  38 H38           -1.0986     8.3456    -0.2663 H       
  39 H39           -1.7455     3.3172     0.3532 H       
  40 H40           -4.3354    -0.7261     1.0990 H       
  41 H41           -6.7600    -0.4599     1.4092 H       
  42 H42           -6.3620     3.7726     0.9543 H       
  43 H43           -3.9357     3.5166     0.6493 H       
  44 H44            4.6538     1.7948     1.7560 H       
  45 H45            3.8509     3.2188     2.5488 H       
  46 H46            4.1259     0.3288     3.6477 H       
  47 H47            4.0982     1.8829     4.5886 H       
  48 H48            1.7599     2.3088     3.9905 H       
  49 H49            1.6861     0.5032     3.8021 H       
@<TRIPOS>BOND
   1    1    2 1
   2    1    3 1
   3    1   16 2
   4    2   14 1
   5    3    4 1
   6    3   31 1
   7    3   32 1
   8    4    5 1
   9    4    6 am
  10    5   28 1
  11    5   30 1
  12    5   33 1
  13    6    7 1
  14    6   12 2
  15    7    8 2
  16    7    9 1
  17    8   11 1
  18    8   34 1
  19    9   10 2
  20   10   11 1
  21   10   35 1
  22   11   13 1
  23   13   36 1
  24   13   37 1
  25   13   38 1
  26   14   15 2
  27   15   16 1
  28   15   17 1
  29   16   39 1
  30   17   18 ar
  31   17   22 ar
  32   18   19 ar
  33   18   40 1
  34   19   20 ar
  35   19   41 1
  36   20   21 ar
  37   20   23 1
  38   21   22 ar
  39   21   42 1
  40   22   43 1
  41   23   24 1
  42   24   25 1
  43   24   26 1
  44   24   27 1
  45   28   29 1
  46   28   44 1
  47   28   45 1
  48   29   30 1
  49   29   46 1
  50   29   47 1
  51   30   48 1
  52   30   49 1

#	End of record

