#	Name: ASD05430639
#	Creating user name:	WinNT
#	Creation time:	15. 06. 2019 21:00

#	Modifying user name:	WinNT
#	Modification time:	15. 06. 2019 21:00

#	Program:	/corina/corina34_cracker 3.40 0067  02.08.2006

@<TRIPOS>MOLECULE
ASD05430639
  42   44    0    0    0
SMALL
NO_CHARGES


@<TRIPOS>ATOM
   1 C1            -0.0171     1.4094     0.0098 C.ar    
   2 C2             0.0021    -0.0041     0.0020 C.ar    
   3 C3             1.1892    -0.7041    -0.0218 C.ar    
   4 C4             2.3940    -0.0276    -0.0385 C.ar    
   5 C5             2.3911     1.3521    -0.0268 C.ar    
   6 C6             1.1995     2.0622     0.0017 C.ar    
   7 C7             3.7003     2.0981    -0.0447 C.3     
   8 C8             4.5234     1.7133     1.1864 C.3     
   9 C9             4.4772     1.7344    -1.3116 C.3     
  10 N10           -1.2118    -0.7086     0.0194 N.pl3   
  11 C11           -2.2478    -0.5108     0.8748 C.2     
  12 C12           -1.5777    -1.7222    -0.8277 C.2     
  13 C13           -2.8139    -2.1104    -0.4605 C.2     
  14 N14           -3.1981    -1.3555     0.5793 N.2     
  15 C15           -3.6268    -3.2012    -1.1089 C.3     
  16 C16            1.0453     3.5878     0.0388 C.3     
  17 Si17          -0.7903     3.6595     0.4867 Si      
  18 O18           -1.1937     2.1265     0.0133 O.3     
  19 C19           -1.0450     3.9053     2.3157 C.3     
  20 C20           -1.6934     4.9497    -0.5085 C.3     
  21 H21            1.1777    -1.7841    -0.0271 H       
  22 H22            3.3265    -0.5721    -0.0602 H       
  23 H23            3.5075     3.1708    -0.0320 H       
  24 H24            4.7162     0.6406     1.1737 H       
  25 H25            5.4704     2.2529     1.1734 H       
  26 H26            3.9699     1.9723     2.0889 H       
  27 H27            3.8909     2.0085    -2.1886 H       
  28 H28            5.4242     2.2740    -1.3245 H       
  29 H29            4.6701     0.6617    -1.3243 H       
  30 H30           -2.2798     0.2223     1.6672 H       
  31 H31           -0.9879    -2.1309    -1.6349 H       
  32 H32           -3.4151    -4.1519    -0.6195 H       
  33 H33           -4.6877    -2.9707    -1.0112 H       
  34 H34           -3.3657    -3.2701    -2.1649 H       
  35 H35            1.6663     4.0361     0.8143 H       
  36 H36            1.2392     4.0355    -0.9360 H       
  37 H37           -0.5800     4.8415     2.6247 H       
  38 H38           -2.1127     3.9411     2.5323 H       
  39 H39           -0.5914     3.0772     2.8603 H       
  40 H40           -1.6085     4.7154    -1.5696 H       
  41 H41           -2.7450     4.9595    -0.2217 H       
  42 H42           -1.2553     5.9291    -0.3165 H       
@<TRIPOS>BOND
   1    1    2 ar
   2    1    6 ar
   3    1   18 1
   4    2    3 ar
   5    2   10 1
   6    3    4 ar
   7    3   21 1
   8    4    5 ar
   9    4   22 1
  10    5    6 ar
  11    5    7 1
  12    6   16 1
  13    7    8 1
  14    7    9 1
  15    7   23 1
  16    8   24 1
  17    8   25 1
  18    8   26 1
  19    9   27 1
  20    9   28 1
  21    9   29 1
  22   10   11 1
  23   10   12 1
  24   11   14 2
  25   11   30 1
  26   12   13 2
  27   12   31 1
  28   13   14 1
  29   13   15 1
  30   15   32 1
  31   15   33 1
  32   15   34 1
  33   16   17 1
  34   16   35 1
  35   16   36 1
  36   17   18 1
  37   17   19 1
  38   17   20 1
  39   19   37 1
  40   19   38 1
  41   19   39 1
  42   20   40 1
  43   20   41 1
  44   20   42 1

#	End of record

