#	Name: ASD01028453
#	Creating user name:	WinNT
#	Creation time:	15. 06. 2019 18:57

#	Modifying user name:	WinNT
#	Modification time:	15. 06. 2019 18:57

#	Program:	/corina/corina34_cracker 3.40 0067  02.08.2006

@<TRIPOS>MOLECULE
ASD01028453
  51   55    0    0    0
SMALL
NO_CHARGES


@<TRIPOS>ATOM
   1 C1            -0.0171     1.4118     0.0098 C.ar    
   2 C2             0.0021    -0.0041     0.0020 C.ar    
   3 C3             1.2105     2.1116     0.0018 C.ar    
   4 C4             2.3793     1.3714    -0.0133 C.ar    
   5 C5             2.3160    -0.0162    -0.0202 C.ar    
   6 N6             1.1704    -0.6565    -0.0123 N.ar    
   7 O7             1.2420     3.4670     0.0084 O.3     
   8 C8             2.5299     4.0861    -0.0005 C.3     
   9 C9             2.3673     5.5842     0.0086 C.2     
  10 N10            2.2907     6.3789     1.1110 N.pl3   
  11 C11            2.1481     7.6613     0.6410 C.2     
  12 N12            2.1450     7.5867    -0.6802 N.2     
  13 N13            2.2796     6.3592    -1.0415 N.2     
  14 C14            2.3287     6.1318     2.4507 C.2     
  15 C15            2.2252     7.1547     3.3424 C.2     
  16 C16            2.0771     8.4847     2.8826 C.2     
  17 C17            2.0398     8.7340     1.5485 C.2     
  18 C18            2.2673     6.8747     4.7991 C.ar    
  19 C19           -1.2152    -0.7043     0.0100 C.ar    
  20 C20           -2.4012    -0.0065     0.0251 C.ar    
  21 C21           -2.4085     1.3917     0.0322 C.ar    
  22 C22           -1.2431     2.0938     0.0309 C.ar    
  23 O23           -3.5786    -0.6840     0.0328 O.3     
  24 C24           -4.7758     0.0961     0.0485 C.3     
  25 C25            3.3208     7.3581     5.5728 C.ar    
  26 C26            3.3570     7.0967     6.9266 C.ar    
  27 C27            2.3456     6.3525     7.5185 C.ar    
  28 C28            1.2950     5.8696     6.7503 C.ar    
  29 C29            1.2505     6.1327     5.3971 C.ar    
  30 O30            2.3844     6.0957     8.8523 O.3     
  31 C31            1.3116     5.3240     9.3959 C.3     
  32 F32            1.2755     4.0718     8.7730 F       
  33 F33            1.5082     5.1554    10.7707 F       
  34 F34            0.1006     5.9892     9.1761 F       
  35 H35            3.3370     1.8705    -0.0202 H       
  36 H36            3.2348    -0.5838    -0.0321 H       
  37 H37            3.0883     3.7758     0.8827 H       
  38 H38            3.0716     3.7849    -0.8972 H       
  39 H39            2.4412     5.1185     2.8068 H       
  40 H40            1.9942     9.2972     3.5893 H       
  41 H41            1.9275     9.7452     1.1860 H       
  42 H42           -1.2205    -1.7843     0.0039 H       
  43 H43           -3.3501     1.9205     0.0433 H       
  44 H44           -1.2617     3.1736     0.0364 H       
  45 H45           -4.7911     0.7202     0.9420 H       
  46 H46           -4.8082     0.7297    -0.8378 H       
  47 H47           -5.6412    -0.5666     0.0533 H       
  48 H48            4.1083     7.9366     5.1128 H       
  49 H49            4.1732     7.4711     7.5267 H       
  50 H50            0.5097     5.2906     7.2135 H       
  51 H51            0.4326     5.7571     4.8001 H       
@<TRIPOS>BOND
   1    1    2 ar
   2    1    3 ar
   3    1   22 ar
   4    2   19 ar
   5    2    6 ar
   6    3    4 ar
   7    3    7 1
   8    4    5 ar
   9    4   35 1
  10    5    6 ar
  11    5   36 1
  12    7    8 1
  13    8    9 1
  14    8   37 1
  15    8   38 1
  16    9   10 1
  17    9   13 2
  18   10   11 1
  19   10   14 1
  20   11   12 2
  21   11   17 1
  22   12   13 1
  23   14   15 2
  24   14   39 1
  25   15   16 1
  26   15   18 1
  27   16   17 2
  28   16   40 1
  29   17   41 1
  30   18   25 ar
  31   18   29 ar
  32   19   20 ar
  33   19   42 1
  34   20   21 ar
  35   20   23 1
  36   21   22 ar
  37   21   43 1
  38   22   44 1
  39   23   24 1
  40   24   45 1
  41   24   46 1
  42   24   47 1
  43   25   26 ar
  44   25   48 1
  45   26   27 ar
  46   26   49 1
  47   27   28 ar
  48   27   30 1
  49   28   29 ar
  50   28   50 1
  51   29   51 1
  52   30   31 1
  53   31   32 1
  54   31   33 1
  55   31   34 1

#	End of record

