#	Name: ASD01208519
#	Creating user name:	WinNT
#	Creation time:	15. 06. 2019 19:09

#	Modifying user name:	WinNT
#	Modification time:	15. 06. 2019 19:09

#	Program:	/corina/corina34_cracker 3.40 0067  02.08.2006

@<TRIPOS>MOLECULE
ASD01208519
  25   25    0    0    0
SMALL
NO_CHARGES


@<TRIPOS>ATOM
   1 N1            -0.0165     1.3671     0.0096 N.am    
   2 C2             0.0021    -0.0041     0.0020 C.2     
   3 C3             1.2875    -0.4063    -0.0124 C.2     
   4 C4             2.0966     0.7508    -0.0139 C.2     
   5 C5             1.2778     1.8201    -0.0004 C.2     
   6 C6            -1.1210     2.1395     0.0192 C.2     
   7 O7            -1.6133     2.4817     1.0751 O.2     
   8 O8            -1.6780     2.5313    -1.1412 O.3     
   9 Br9            1.8191     3.6320     0.0036 Br      
  10 Br10          -1.5140    -1.1342     0.0110 Br      
  11 C11           -2.8659     3.3619    -1.0548 C.3     
  12 C12           -2.5327     4.6518    -0.3025 C.3     
  13 C13           -3.3521     3.7047    -2.4644 C.3     
  14 C14           -3.9646     2.6044    -0.3065 C.3     
  15 H15            1.6360    -1.4285    -0.0207 H       
  16 H16            3.1763     0.7741    -0.0236 H       
  17 H17           -1.7500     5.1915    -0.8356 H       
  18 H18           -3.4244     5.2753    -0.2377 H       
  19 H19           -2.1863     4.4076     0.7017 H       
  20 H20           -3.5895     2.7858    -3.0004 H       
  21 H21           -4.2438     4.3282    -2.3996 H       
  22 H22           -2.5694     4.2444    -2.9975 H       
  23 H23           -3.6182     2.3601     0.6977 H       
  24 H24           -4.8563     3.2278    -0.2417 H       
  25 H25           -4.2020     1.6854    -0.8425 H       
@<TRIPOS>BOND
   1    1    2 1
   2    1    5 1
   3    1    6 am
   4    2    3 2
   5    2   10 1
   6    3    4 1
   7    3   15 1
   8    4    5 2
   9    4   16 1
  10    5    9 1
  11    6    7 2
  12    6    8 1
  13    8   11 1
  14   11   12 1
  15   11   14 1
  16   11   13 1
  17   12   17 1
  18   12   18 1
  19   12   19 1
  20   13   20 1
  21   13   21 1
  22   13   22 1
  23   14   23 1
  24   14   24 1
  25   14   25 1

#	End of record

