#	Name: ASD09800062
#	Creating user name:	WinNT
#	Creation time:	15. 06. 2019 21:24

#	Modifying user name:	WinNT
#	Modification time:	15. 06. 2019 21:24

#	Program:	/corina/corina34_cracker 3.40 0067  02.08.2006

@<TRIPOS>MOLECULE
ASD09800062
  57   61    0    0    0
SMALL
NO_CHARGES


@<TRIPOS>ATOM
   1 C1             0.3105     1.8298     0.9485 C.ar    
   2 C2             0.2736     0.6163     1.6467 C.ar    
   3 C3             1.4687    -0.0263     1.9133 C.ar    
   4 N4             2.6039     0.5201     1.5040 N.ar    
   5 C5             2.6099     1.6699     0.8449 C.ar    
   6 N6             1.4903     2.3193     0.5679 N.ar    
   7 C7            -0.9401     2.5534     0.6331 C.2     
   8 C8            -2.6054     3.6693    -0.4899 C.ar    
   9 N9            -2.9179     3.5488     0.8472 N.pl3   
  10 C10           -1.9255     2.8885     1.5052 C.2     
  11 N11            3.8196     2.2061     0.4351 N.pl3   
  12 C12            5.0055     1.4764     0.6096 C.ar    
  13 C13            6.1449    -0.6291     0.7568 C.ar    
  14 C14            4.9773     0.0904     0.5845 C.ar    
  15 C15            6.2129     2.1445     0.8025 C.ar    
  16 C16            7.3816     1.4226     0.9745 C.ar    
  17 C17            7.3483     0.0343     0.9544 C.ar    
  18 C18           -3.2586     4.2465    -1.5745 C.ar    
  19 C19           -1.3565     3.0566    -0.6865 C.ar    
  20 C20           -0.7843     3.0310    -1.9571 C.ar    
  21 C21           -1.4422     3.6037    -3.0098 C.ar    
  22 C22           -2.6759     4.2109    -2.8224 C.ar    
  23 N23            8.5290    -0.6962     1.1291 N.3     
  24 C24            8.2685    -2.1401     1.0681 C.3     
  25 C25            9.5496    -2.9057     1.4066 C.3     
  26 C26           10.6457    -2.5234     0.4081 C.3     
  27 C27           10.8638    -1.0086     0.4568 C.3     
  28 C28            9.5445    -0.2979     0.1459 C.3     
  29 O29            6.2434     3.5039     0.8214 O.3     
  30 C30            7.5160     4.1216     1.0238 C.3     
  31 N31           11.8945    -3.2108     0.7630 N.3     
  32 Cl32          -1.2365    -0.0648     2.1656 Cl      
  33 H33            1.4765    -0.9635     2.4499 H       
  34 H34           -3.7282     3.8862     1.2600 H       
  35 H35           -1.9227     2.6646     2.5618 H       
  36 H36            3.8469     3.0858     0.0275 H       
  37 H37            6.1210    -1.7086     0.7373 H       
  38 H38            4.0421    -0.4275     0.4305 H       
  39 H39            8.3186     1.9386     1.1238 H       
  40 H40           -4.2175     4.7242    -1.4378 H       
  41 H41            0.1758     2.5606    -2.1095 H       
  42 H42           -0.9985     3.5836    -3.9943 H       
  43 H43           -3.1844     4.6594    -3.6630 H       
  44 H44            7.4901    -2.3992     1.7859 H       
  45 H45            7.9399    -2.4078     0.0639 H       
  46 H46            9.8711    -2.6489     2.4159 H       
  47 H47            9.3599    -3.9773     1.3460 H       
  48 H48           10.3410    -2.8154    -0.5968 H       
  49 H49           11.2060    -0.7220     1.4512 H       
  50 H50           11.6130    -0.7248    -0.2823 H       
  51 H51            9.2100    -0.5743    -0.8540 H       
  52 H52            9.6930     0.7808     0.1938 H       
  53 H53            7.3991     5.2053     1.0172 H       
  54 H54            7.9243     3.8061     1.9840 H       
  55 H55            8.1953     3.8245     0.2248 H       
  56 H56           12.6334    -2.9741     0.1180 H       
  57 H57           12.1638    -3.0037     1.7131 H       
@<TRIPOS>BOND
   1    1    2 ar
   2    1    6 ar
   3    1    7 1
   4    2    3 ar
   5    2   32 1
   6    3    4 ar
   7    3   33 1
   8    4    5 ar
   9    5    6 ar
  10    5   11 1
  11    7   19 1
  12    7   10 2
  13    8    9 1
  14    8   19 ar
  15    8   18 ar
  16    9   10 1
  17    9   34 1
  18   10   35 1
  19   11   12 1
  20   11   36 1
  21   12   15 ar
  22   12   14 ar
  23   13   14 ar
  24   13   17 ar
  25   13   37 1
  26   14   38 1
  27   15   16 ar
  28   15   29 1
  29   16   17 ar
  30   16   39 1
  31   17   23 1
  32   18   22 ar
  33   18   40 1
  34   19   20 ar
  35   20   21 ar
  36   20   41 1
  37   21   22 ar
  38   21   42 1
  39   22   43 1
  40   23   24 1
  41   23   28 1
  42   24   25 1
  43   24   44 1
  44   24   45 1
  45   25   26 1
  46   25   46 1
  47   25   47 1
  48   26   27 1
  49   26   31 1
  50   26   48 1
  51   27   28 1
  52   27   49 1
  53   27   50 1
  54   28   51 1
  55   28   52 1
  56   29   30 1
  57   30   53 1
  58   30   54 1
  59   30   55 1
  60   31   56 1
  61   31   57 1

#	End of record

