#	Name: ASD03540045
#	Creating user name:	WinNT
#	Creation time:	15. 06. 2019 20:42

#	Modifying user name:	WinNT
#	Modification time:	15. 06. 2019 20:42

#	Program:	/corina/corina34_cracker 3.40 0067  02.08.2006

@<TRIPOS>MOLECULE
ASD03540045
  54   57    0    0    0
SMALL
NO_CHARGES


@<TRIPOS>ATOM
   1 C1            -0.0179     1.4722     0.0101 C.2     
   2 C2             0.0021    -0.0041     0.0020 C.ar    
   3 C3             1.2201    -0.6899    -0.0133 C.ar    
   4 C4             1.2303    -2.0708    -0.0203 C.ar    
   5 C5             0.0394    -2.7742    -0.0123 C.ar    
   6 C6            -1.1697    -2.1010     0.0024 C.ar    
   7 C7            -1.1955    -0.7220     0.0154 C.ar    
   8 O8             1.0257     2.0939     0.0035 O.2     
   9 O9            -1.1937     2.1299     0.0193 O.3     
  10 C10            0.0585    -4.2810    -0.0200 C.3     
  11 C11           -1.0811    -5.0123     1.9855 C.2     
  12 N12           -1.1303    -5.4730     3.2664 N.am    
  13 C13            0.0638    -5.6932     3.9097 C.2     
  14 C14            1.2674    -5.4580     3.2851 C.2     
  15 C15            1.2623    -4.9843     1.9666 C.2     
  16 N16            0.0781    -4.7763     1.3586 N.am    
  17 S17           -0.3468    -6.2778     5.5278 S.3     
  18 C18           -2.2451    -5.7478     4.0037 C.2     
  19 C19           -2.0970    -6.1967     5.2578 C.2     
  20 O20            2.3096    -4.7640     1.3806 O.2     
  21 O21           -2.1228    -4.8138     1.3911 O.2     
  22 C22            2.5672    -5.7047     4.0065 C.3     
  23 C23           -3.1604    -6.5475     6.2079 C.2     
  24 N24           -2.8434    -6.9871     7.4419 N.am    
  25 O25           -4.3276    -6.4412     5.8812 O.2     
  26 C26           -3.9042    -7.3370     8.3898 C.3     
  27 C27           -3.2881    -7.7962     9.6862 C.ar    
  28 C28           -3.0163    -6.8795    10.6846 C.ar    
  29 C29           -2.4518    -7.2995    11.8740 C.ar    
  30 C30           -2.1584    -8.6391    12.0655 C.ar    
  31 C31           -2.4311    -9.5563    11.0648 C.ar    
  32 C32           -3.0005    -9.1347     9.8782 C.ar    
  33 F33           -1.6061    -9.0508    13.2277 F       
  34 Cl34           2.7155     0.1918    -0.0240 Cl      
  35 C35           -1.1374     3.5808     0.0269 C.3     
  36 H36            2.1702    -2.6027    -0.0325 H       
  37 H37           -2.0955    -2.6570     0.0080 H       
  38 H38           -2.1401    -0.1986     0.0318 H       
  39 H39           -0.8318    -4.6531    -0.5271 H       
  40 H40            0.9479    -4.6304    -0.5443 H       
  41 H41           -3.2300    -5.6059     3.5838 H       
  42 H42            2.8896    -6.7315     3.8336 H       
  43 H43            3.3264    -5.0177     3.6327 H       
  44 H44            2.4259    -5.5434     5.0752 H       
  45 H45           -1.9129    -7.0718     7.7024 H       
  46 H46           -4.5295    -6.4634     8.5740 H       
  47 H47           -4.5138    -8.1388     7.9731 H       
  48 H48           -3.2449    -5.8347    10.5349 H       
  49 H49           -2.2392    -6.5832    12.6538 H       
  50 H50           -2.2027   -10.6014    11.2130 H       
  51 H51           -3.2171    -9.8506     9.0991 H       
  52 H52           -0.6056     3.9191     0.9162 H       
  53 H53           -0.6141     3.9288    -0.8637 H       
  54 H54           -2.1502     3.9837     0.0339 H       
@<TRIPOS>BOND
   1    1    2 1
   2    1    8 2
   3    1    9 1
   4    2    3 ar
   5    2    7 ar
   6    3    4 ar
   7    3   34 1
   8    4    5 ar
   9    4   36 1
  10    5    6 ar
  11    5   10 1
  12    6    7 ar
  13    6   37 1
  14    7   38 1
  15    9   35 1
  16   10   16 1
  17   10   39 1
  18   10   40 1
  19   11   12 am
  20   11   16 am
  21   11   21 2
  22   12   13 1
  23   12   18 1
  24   13   14 2
  25   13   17 1
  26   14   15 1
  27   14   22 1
  28   15   16 am
  29   15   20 2
  30   17   19 1
  31   18   19 2
  32   18   41 1
  33   19   23 1
  34   22   42 1
  35   22   43 1
  36   22   44 1
  37   23   24 am
  38   23   25 2
  39   24   26 1
  40   24   45 1
  41   26   27 1
  42   26   46 1
  43   26   47 1
  44   27   28 ar
  45   27   32 ar
  46   28   29 ar
  47   28   48 1
  48   29   30 ar
  49   29   49 1
  50   30   31 ar
  51   30   33 1
  52   31   32 ar
  53   31   50 1
  54   32   51 1
  55   35   52 1
  56   35   53 1
  57   35   54 1

#	End of record

