#	Name: ASD03092410
#	Creating user name:	WinNT
#	Creation time:	15. 06. 2019 20:32

#	Modifying user name:	WinNT
#	Modification time:	15. 06. 2019 20:32

#	Program:	/corina/corina34_cracker 3.40 0067  02.08.2006

@<TRIPOS>MOLECULE
ASD03092410
  44   47    0    0    0
SMALL
NO_CHARGES


@<TRIPOS>ATOM
   1 C1            -0.0279     1.2767    -0.7463 C.3     
   2 C2            -0.0454    -0.2394    -0.9517 C.3     
   3 C3             1.2853     0.5155    -0.9385 C.3     
   4 C4            -0.5057     2.1388    -1.8862 C.2     
   5 O5            -0.8849     1.6252    -2.9174 O.2     
   6 N6            -0.5117     3.4806    -1.7598 N.am    
   7 C7            -0.9762     4.3187    -2.8679 C.3     
   8 S8            -1.3861     8.1062    -1.6494 S.3     
   9 C9             0.1784     7.7145    -2.2158 C.2     
  10 N10            0.2241     6.4712    -2.5901 N.2     
  11 C11           -0.8827     5.7702    -2.4735 C.2     
  12 C12           -1.9274     6.4607    -1.9706 C.2     
  13 C13           -5.6651     6.0984    -1.9220 C.ar    
  14 C14           -4.4177     6.6307    -2.1659 C.ar    
  15 C15           -3.2840     5.9308    -1.7315 C.ar    
  16 C16           -3.4745     4.7135    -1.0641 C.ar    
  17 C17           -4.7588     4.2562    -0.8629 C.ar    
  18 N18           -5.7996     4.9476    -1.2893 N.ar    
  19 N19            1.2434     8.5953    -2.2686 N.3     
  20 C20            0.8544     9.9227    -1.7704 C.3     
  21 C21            2.0747    10.8470    -1.7904 C.3     
  22 O22            2.6041    10.9007    -3.1178 O.3     
  23 C23            2.9938     9.6253    -3.6343 C.3     
  24 C24            1.7829     8.6886    -3.6330 C.3     
  25 H25           -0.2507     1.6518     0.2526 H       
  26 H26           -0.2796    -0.8616    -0.0879 H       
  27 H27           -0.4025    -0.6132    -1.9113 H       
  28 H28            1.8037     0.6384    -1.8894 H       
  29 H29            1.9266     0.3899    -0.0661 H       
  30 H30           -0.2085     3.8914    -0.9350 H       
  31 H31           -0.3538     4.1396    -3.7446 H       
  32 H32           -2.0119     4.0716    -3.1011 H       
  33 H33           -6.5451     6.6324    -2.2489 H       
  34 H34           -4.3152     7.5725    -2.6844 H       
  35 H35           -2.6278     4.1422    -0.7132 H       
  36 H36           -4.9161     3.3191    -0.3496 H       
  37 H37            0.0738    10.3366    -2.4087 H       
  38 H38            0.4819     9.8336    -0.7499 H       
  39 H39            1.7784    11.8478    -1.4759 H       
  40 H40            2.8346    10.4613    -1.1108 H       
  41 H41            3.3623     9.7424    -4.6534 H       
  42 H42            3.7805     9.2041    -3.0083 H       
  43 H43            2.0881     7.6987    -3.9721 H       
  44 H44            1.0171     9.0828    -4.3011 H       
@<TRIPOS>BOND
   1    1    2 1
   2    1    3 1
   3    1    4 1
   4    1   25 1
   5    2    3 1
   6    2   26 1
   7    2   27 1
   8    3   28 1
   9    3   29 1
  10    4    5 2
  11    4    6 am
  12    6    7 1
  13    6   30 1
  14    7   11 1
  15    7   31 1
  16    7   32 1
  17    8    9 1
  18    8   12 1
  19    9   10 2
  20    9   19 1
  21   10   11 1
  22   11   12 2
  23   12   15 1
  24   13   14 ar
  25   13   18 ar
  26   13   33 1
  27   14   15 ar
  28   14   34 1
  29   15   16 ar
  30   16   17 ar
  31   16   35 1
  32   17   18 ar
  33   17   36 1
  34   19   20 1
  35   19   24 1
  36   20   21 1
  37   20   37 1
  38   20   38 1
  39   21   22 1
  40   21   39 1
  41   21   40 1
  42   22   23 1
  43   23   24 1
  44   23   41 1
  45   23   42 1
  46   24   43 1
  47   24   44 1

#	End of record

