#	Name: ASD02038741
#	Creating user name:	WinNT
#	Creation time:	15. 06. 2019 20:17

#	Modifying user name:	WinNT
#	Modification time:	15. 06. 2019 20:17

#	Program:	/corina/corina34_cracker 3.40 0067  02.08.2006

@<TRIPOS>MOLECULE
ASD02038741
  52   56    0    0    0
SMALL
NO_CHARGES


@<TRIPOS>ATOM
   1 C1            -0.0178     1.4648     0.0101 C.3     
   2 N2             0.0021    -0.0041     0.0020 N.3     
   3 C3             1.4175     1.9944    -0.0008 C.3     
   4 C4             1.3968     3.5242     0.0076 C.3     
   5 C5             2.8106     4.0458    -0.0030 C.ar    
   6 C6             3.4423     4.2895    -1.2026 C.ar    
   7 C7             4.7492     4.7716    -1.2082 C.ar    
   8 C8             5.4178     5.0075     0.0037 C.ar    
   9 C9             4.7623     4.7554     1.2048 C.ar    
  10 C10            3.4680     4.2838     1.1956 C.ar    
  11 C11           -1.3394    -0.5503     0.2501 C.3     
  12 C12           -1.2913    -2.0771     0.1549 C.3     
  13 C13            5.7025     5.1328    -2.2732 C.2     
  14 C14            6.8411     5.5472    -1.6491 C.2     
  15 N15            6.6785     5.4753    -0.3034 N.pl3   
  16 C16            0.9681    -0.5230     0.9803 C.3     
  17 C17            1.0163    -2.0498     0.8851 C.3     
  18 N18           -0.3252    -2.5961     1.1332 N.3     
  19 C19           -0.3063    -3.9917     1.1255 C.2     
  20 N20            0.7888    -4.6445     0.9202 N.2     
  21 C21           -1.5181    -4.7626     1.3545 C.ar    
  22 C22           -1.2676    -6.1465     1.3026 C.ar    
  23 S23            0.4597    -6.3049     0.9763 S.3     
  24 C24           -2.8403    -4.3416     1.6080 C.ar    
  25 C25           -3.8279    -5.2594     1.7937 C.ar    
  26 C26           -3.5618    -6.6221     1.7394 C.ar    
  27 C27           -2.2913    -7.0642     1.4952 C.ar    
  28 C28            5.4767     5.0620    -3.6855 C.1     
  29 N29            5.2976     5.0059    -4.8059 N.1     
  30 H30           -0.5450     1.8259    -0.8730 H       
  31 H31           -0.5280     1.8163     0.9069 H       
  32 H32            1.9447     1.6333     0.8823 H       
  33 H33            1.9277     1.6428    -0.8976 H       
  34 H34            0.8696     3.8853    -0.8754 H       
  35 H35            0.8866     3.8757     0.9044 H       
  36 H36            2.9271     4.1073    -2.1341 H       
  37 H37            5.2664     4.9327     2.1433 H       
  38 H38            2.9630     4.0895     2.1303 H       
  39 H39           -1.6725    -0.2584     1.2461 H       
  40 H40           -2.0339    -0.1613    -0.4944 H       
  41 H41           -2.2791    -2.4861     0.3672 H       
  42 H42           -0.9845    -2.3693    -0.8493 H       
  43 H43            7.7376     5.8820    -2.1497 H       
  44 H44            7.3532     5.7187     0.3496 H       
  45 H45            1.9560    -0.1141     0.7680 H       
  46 H46            0.6613    -0.2308     1.9846 H       
  47 H47            1.3493    -2.3418    -0.1109 H       
  48 H48            1.7108    -2.4389     1.6297 H       
  49 H49           -3.0696    -3.2873     1.6553 H       
  50 H50           -4.8357    -4.9227     1.9870 H       
  51 H51           -4.3603    -7.3335     1.8904 H       
  52 H52           -2.0848    -8.1234     1.4527 H       
@<TRIPOS>BOND
   1    1    2 1
   2    1    3 1
   3    1   30 1
   4    1   31 1
   5    2   11 1
   6    2   16 1
   7    3    4 1
   8    3   32 1
   9    3   33 1
  10    4    5 1
  11    4   34 1
  12    4   35 1
  13    5    6 ar
  14    5   10 ar
  15    6    7 ar
  16    6   36 1
  17    7    8 ar
  18    7   13 1
  19    8    9 ar
  20    8   15 1
  21    9   10 ar
  22    9   37 1
  23   10   38 1
  24   11   12 1
  25   11   39 1
  26   11   40 1
  27   12   18 1
  28   12   41 1
  29   12   42 1
  30   13   14 2
  31   13   28 1
  32   14   15 1
  33   14   43 1
  34   15   44 1
  35   16   17 1
  36   16   45 1
  37   16   46 1
  38   17   18 1
  39   17   47 1
  40   17   48 1
  41   18   19 1
  42   19   20 2
  43   19   21 1
  44   20   23 1
  45   21   22 ar
  46   21   24 ar
  47   22   23 1
  48   22   27 ar
  49   24   25 ar
  50   24   49 1
  51   25   26 ar
  52   25   50 1
  53   26   27 ar
  54   26   51 1
  55   27   52 1
  56   28   29 3

#	End of record

