#	Name: ASD01911916
#	Creating user name:	WinNT
#	Creation time:	15. 06. 2019 19:58

#	Modifying user name:	WinNT
#	Modification time:	15. 06. 2019 19:58

#	Program:	/corina/corina34_cracker 3.40 0067  02.08.2006

@<TRIPOS>MOLECULE
ASD01911916
  34   36    0    0    0
SMALL
NO_CHARGES


@<TRIPOS>ATOM
   1 C1            -1.0487    -0.4836    -2.0506 C.ar    
   2 C2            -1.0618     0.0602    -0.7702 C.ar    
   3 C3            -1.0262     1.4450    -0.6417 C.ar    
   4 N4            -0.9814     2.1901    -1.7338 N.ar    
   5 C5            -0.9704     1.6370    -2.9299 C.ar    
   6 N6            -1.0032     0.3296    -3.0930 N.ar    
   7 O7            -1.1087    -0.7407     0.3268 O.3     
   8 C8            -1.1453    -2.0852     0.1339 C.ar    
   9 C9             0.0138    -2.7698    -0.2041 C.ar    
  10 C10           -0.0222    -4.1392    -0.4009 C.ar    
  11 C11           -1.2139    -4.8289    -0.2614 C.ar    
  12 C12           -2.3757    -4.1472     0.0767 C.ar    
  13 C13           -2.3391    -2.7744     0.2803 C.ar    
  14 N14           -3.5799    -4.8437     0.2172 N.am    
  15 C15           -3.5758    -6.1116     0.6742 C.2     
  16 C16           -4.8381    -6.8851     0.7239 C.ar    
  17 O17           -2.5364    -6.6203     1.0453 O.2     
  18 C18           -4.8271    -8.1951     1.1971 C.ar    
  19 F19            1.1072    -4.8035    -0.7299 F       
  20 C20           -6.0164    -8.9061     1.2381 C.ar    
  21 C21           -7.1752    -8.2819     0.8043 C.ar    
  22 C22           -7.1123    -6.9755     0.3456 C.ar    
  23 N23           -5.9713    -6.3222     0.3222 N.ar    
  24 H24           -1.0709    -1.5541    -2.1915 H       
  25 H25           -1.0353     1.9049     0.3354 H       
  26 H26           -0.9335     2.2735    -3.8017 H       
  27 H27            0.9446    -2.2333    -0.3141 H       
  28 H28           -1.2405    -5.8974    -0.4160 H       
  29 H29           -3.2416    -2.2426     0.5434 H       
  30 H30           -4.4184    -4.4143    -0.0141 H       
  31 H31           -3.9051    -8.6505     1.5271 H       
  32 H32           -6.0394    -9.9236     1.5996 H       
  33 H33           -8.1180    -8.8084     0.8230 H       
  34 H34           -8.0133    -6.4861     0.0064 H       
@<TRIPOS>BOND
   1    1    2 ar
   2    1    6 ar
   3    1   24 1
   4    2    3 ar
   5    2    7 1
   6    3    4 ar
   7    3   25 1
   8    4    5 ar
   9    5    6 ar
  10    5   26 1
  11    7    8 1
  12    8    9 ar
  13    8   13 ar
  14    9   10 ar
  15    9   27 1
  16   10   11 ar
  17   10   19 1
  18   11   12 ar
  19   11   28 1
  20   12   13 ar
  21   12   14 1
  22   13   29 1
  23   14   15 am
  24   14   30 1
  25   15   16 1
  26   15   17 2
  27   16   18 ar
  28   16   23 ar
  29   18   20 ar
  30   18   31 1
  31   20   21 ar
  32   20   32 1
  33   21   22 ar
  34   21   33 1
  35   22   23 ar
  36   22   34 1

#	End of record

