#	Name: ASD02198219
#	Creating user name:	WinNT
#	Creation time:	15. 06. 2019 20:19

#	Modifying user name:	WinNT
#	Modification time:	15. 06. 2019 20:19

#	Program:	/corina/corina34_cracker 3.40 0067  02.08.2006

@<TRIPOS>MOLECULE
ASD02198219
  42   45    0    0    0
SMALL
NO_CHARGES


@<TRIPOS>ATOM
   1 C1            -0.0166     1.3746     0.0096 C.2     
   2 C2             0.0021    -0.0041     0.0020 C.2     
   3 C3            -1.1877    -0.8010     0.0086 C.1     
   4 S4             1.5678     2.0041    -0.0021 S.3     
   5 C5             2.2767     0.3973    -0.0175 C.2     
   6 C6             1.2834    -0.5519    -0.0132 C.2     
   7 C7             3.6596     0.1223    -0.0322 C.2     
   8 C8             4.6304     1.2294    -0.0350 C.2     
   9 O9             4.0519    -1.0331    -0.0426 O.2     
  10 N10            1.5308    -1.9165    -0.0224 N.pl3   
  11 N11           -1.1598     2.1393     0.0194 N.pl3   
  12 N12           -2.1315    -1.4332     0.0139 N.1     
  13 C13           -1.0632     3.6011     0.0268 C.3     
  14 C14           -2.3388     4.2167    -0.5745 C.3     
  15 S15            4.2030     2.9314    -0.0205 S.3     
  16 C16            5.8970     3.4084    -0.0330 C.ar    
  17 C17            5.9580     1.0760    -0.0431 C.2     
  18 C18            6.7057     2.2653    -0.0476 C.ar    
  19 C19           -2.9728     5.0851     0.5317 C.3     
  20 C20           -1.7892     5.4292     1.4696 C.3     
  21 C21           -0.9666     4.1169     1.4775 C.3     
  22 C22            8.1115     2.4302    -0.0566 C.ar    
  23 C23            8.6601     3.6741    -0.0602 C.ar    
  24 C24            7.8530     4.8051    -0.0551 C.ar    
  25 C25            6.4848     4.6773    -0.0305 C.ar    
  26 H26            2.4438    -2.2438    -0.0326 H       
  27 H27            0.7907    -2.5435    -0.0187 H       
  28 H28           -2.0300     1.7107     0.0213 H       
  29 H29           -0.1903     3.9202    -0.5426 H       
  30 H30           -2.0849     4.8353    -1.4353 H       
  31 H31           -3.0297     3.4278    -0.8719 H       
  32 H32            6.4251     0.1023    -0.0486 H       
  33 H33           -3.3991     5.9936     0.1062 H       
  34 H34           -3.7345     4.5210     1.0700 H       
  35 H35           -1.2006     6.2516     1.0630 H       
  36 H36           -2.1467     5.6671     2.4715 H       
  37 H37           -1.4043     3.3964     2.1685 H       
  38 H38            0.0713     4.3188     1.7422 H       
  39 H39            8.7530     1.5615    -0.0602 H       
  40 H40            9.7345     3.7843    -0.0667 H       
  41 H41            8.3022     5.7872    -0.0577 H       
  42 H42            5.8615     5.5593    -0.0270 H       
@<TRIPOS>BOND
   1    1    2 2
   2    1    4 1
   3    1   11 1
   4    2    3 1
   5    2    6 1
   6    3   12 3
   7    4    5 1
   8    5    6 2
   9    5    7 1
  10    6   10 1
  11    7    8 1
  12    7    9 2
  13    8   15 1
  14    8   17 2
  15   10   26 1
  16   10   27 1
  17   11   13 1
  18   11   28 1
  19   13   14 1
  20   13   21 1
  21   13   29 1
  22   14   19 1
  23   14   30 1
  24   14   31 1
  25   15   16 1
  26   16   18 ar
  27   16   25 ar
  28   17   18 1
  29   17   32 1
  30   18   22 ar
  31   19   20 1
  32   19   33 1
  33   19   34 1
  34   20   21 1
  35   20   35 1
  36   20   36 1
  37   21   37 1
  38   21   38 1
  39   22   23 ar
  40   22   39 1
  41   23   24 ar
  42   23   40 1
  43   24   25 ar
  44   24   41 1
  45   25   42 1

#	End of record

