#	Name: ASD03730300
#	Creating user name:	WinNT
#	Creation time:	15. 06. 2019 20:44

#	Modifying user name:	WinNT
#	Modification time:	15. 06. 2019 20:44

#	Program:	/corina/corina34_cracker 3.40 0067  02.08.2006

@<TRIPOS>MOLECULE
ASD03730300
  71   76    0    0    0
SMALL
NO_CHARGES


@<TRIPOS>ATOM
   1 N1             1.3216     2.0010    -1.7558 N.3     
   2 C2             1.3126     0.5263    -1.8996 C.3     
   3 O3             2.7024     0.2004    -2.0808 O.3     
   4 C4             3.4181     1.1794    -1.4542 C.ar    
   5 C5             2.6031     2.2918    -1.2489 C.ar    
   6 C6             4.7357     1.2072    -1.0294 C.ar    
   7 C7             5.2545     2.3379    -0.4063 C.ar    
   8 C8             4.4345     3.4472    -0.2234 C.ar    
   9 C9             3.1185     3.4221    -0.6361 C.ar    
  10 O10            6.5021     2.5582     0.0999 O.3     
  11 C11            5.2813     4.5044     0.4326 C.3     
  12 C12            6.7106     3.9755     0.2500 C.3     
  13 N13            4.7057     6.6894     0.7765 N.am    
  14 C14            5.1013     5.8531    -0.2037 C.2     
  15 C15            4.9367     4.6992     1.8790 C.ar    
  16 C16            4.9042     3.8540     2.9798 C.ar    
  17 C17            4.5303     4.3538     4.2271 C.ar    
  18 C18            4.1953     5.6870     4.3575 C.ar    
  19 C19            4.2283     6.5269     3.2629 C.ar    
  20 C20            4.5998     6.0417     2.0101 C.ar    
  21 O21            5.2780     6.1344    -1.3702 O.2     
  22 C22            0.2745     2.4457    -0.8263 C.3     
  23 C23            0.6428     2.0227     0.5971 C.3     
  24 C24           -0.4478     2.4858     1.5651 C.3     
  25 C25           -0.0794     2.0628     2.9886 C.3     
  26 C26           -1.1700     2.5259     3.9566 C.3     
  27 C27            5.2656     2.4232     2.8299 C.ar    
  28 C28            6.6090     2.0421     2.7610 C.ar    
  29 C29            6.9389     0.7041     2.6209 C.ar    
  30 C30            5.9427    -0.2515     2.5490 C.ar    
  31 C31            4.6104     0.1220     2.6168 C.ar    
  32 C32            4.2683     1.4534     2.7629 C.ar    
  33 F33            3.6428    -0.8182     2.5458 F       
  34 O34            7.5882     2.9816     2.8308 O.3     
  35 C35            8.9380     2.5188     2.7537 C.3     
  36 C36            9.8922     3.7110     2.8491 C.3     
  37 C37           11.3374     3.2155     2.7665 C.3     
  38 C38           12.2915     4.4077     2.8618 C.3     
  39 H39            0.9218     0.0547    -0.9979 H       
  40 H40            0.7313     0.2290    -2.7725 H       
  41 H41            5.3660     0.3437    -1.1827 H       
  42 H42            2.4887     4.2857    -0.4812 H       
  43 H43            7.3169     4.1863     1.1310 H       
  44 H44            7.1677     4.3964    -0.6455 H       
  45 H45            4.5169     7.6312     0.6413 H       
  46 H46            4.5025     3.7009     5.0870 H       
  47 H47            3.9051     6.0751     5.3226 H       
  48 H48            3.9642     7.5678     3.3779 H       
  49 H49            0.1858     3.5312    -0.8713 H       
  50 H50           -0.6762     1.9916    -1.1058 H       
  51 H51            0.7315     0.9372     0.6421 H       
  52 H52            1.5935     2.4768     0.8766 H       
  53 H53           -0.5364     3.5713     1.5202 H       
  54 H54           -1.3984     2.0317     1.2856 H       
  55 H55            0.0092     0.9773     3.0336 H       
  56 H56            0.8712     2.5169     3.2681 H       
  57 H57           -0.9076     2.2245     4.9707 H       
  58 H58           -1.2587     3.6114     3.9116 H       
  59 H59           -2.1207     2.0718     3.6771 H       
  60 H60            7.9759     0.4071     2.5675 H       
  61 H61            6.2041    -1.2936     2.4390 H       
  62 H62            3.2291     1.7416     2.8204 H       
  63 H63            9.1336     1.8303     3.5758 H       
  64 H64            9.0923     2.0049     1.8049 H       
  65 H65            9.6966     4.3995     2.0270 H       
  66 H66            9.7379     4.2249     3.7979 H       
  67 H67           11.5329     2.5270     3.5886 H       
  68 H68           11.4916     2.7016     1.8177 H       
  69 H69           12.0960     5.0962     2.0398 H       
  70 H70           12.1373     4.9216     3.8107 H       
  71 H71           13.3211     4.0547     2.8030 H       
@<TRIPOS>BOND
   1    1    2 1
   2    1    5 1
   3    1   22 1
   4    2    3 1
   5    2   39 1
   6    2   40 1
   7    3    4 1
   8    4    5 ar
   9    4    6 ar
  10    5    9 ar
  11    6    7 ar
  12    6   41 1
  13    7    8 ar
  14    7   10 1
  15    8    9 ar
  16    8   11 1
  17    9   42 1
  18   10   12 1
  19   11   12 1
  20   11   14 1
  21   11   15 1
  22   12   43 1
  23   12   44 1
  24   13   14 am
  25   13   20 1
  26   13   45 1
  27   14   21 2
  28   15   16 ar
  29   15   20 ar
  30   16   17 ar
  31   16   27 1
  32   17   18 ar
  33   17   46 1
  34   18   19 ar
  35   18   47 1
  36   19   20 ar
  37   19   48 1
  38   22   23 1
  39   22   49 1
  40   22   50 1
  41   23   24 1
  42   23   51 1
  43   23   52 1
  44   24   25 1
  45   24   53 1
  46   24   54 1
  47   25   26 1
  48   25   55 1
  49   25   56 1
  50   26   57 1
  51   26   58 1
  52   26   59 1
  53   27   28 ar
  54   27   32 ar
  55   28   29 ar
  56   28   34 1
  57   29   30 ar
  58   29   60 1
  59   30   31 ar
  60   30   61 1
  61   31   32 ar
  62   31   33 1
  63   32   62 1
  64   34   35 1
  65   35   36 1
  66   35   63 1
  67   35   64 1
  68   36   37 1
  69   36   65 1
  70   36   66 1
  71   37   38 1
  72   37   67 1
  73   37   68 1
  74   38   69 1
  75   38   70 1
  76   38   71 1

#	End of record

