#	Name: ASD01148727
#	Creating user name:	WinNT
#	Creation time:	15. 06. 2019 19:03

#	Modifying user name:	WinNT
#	Modification time:	15. 06. 2019 19:03

#	Program:	/corina/corina34_cracker 3.40 0067  02.08.2006

@<TRIPOS>MOLECULE
ASD01148727
  61   64    0    0    0
SMALL
NO_CHARGES


@<TRIPOS>ATOM
   1 N1            -0.0165     1.3461     0.0803 N.pl3   
   2 C2             0.0031     0.0043    -0.1127 C.2     
   3 C3             1.3196    -0.4043    -0.1552 C.2     
   4 C4             2.1203     0.7550     0.0217 C.2     
   5 C5             1.2761     1.8084     0.1629 C.2     
   6 C6             1.8029    -1.7808    -0.3466 C.2     
   7 O7             1.0084    -2.6899    -0.4867 O.2     
   8 O8             3.1267    -2.0336    -0.3667 O.3     
   9 C9             1.6785     3.2162     0.3702 C.ar    
  10 C10            2.9579     3.6389     0.0055 C.ar    
  11 C11            3.3300     4.9516     0.1999 C.ar    
  12 C12            2.4328     5.8544     0.7592 C.ar    
  13 C13            1.1581     5.4364     1.1239 C.ar    
  14 C14            0.7778     4.1265     0.9258 C.ar    
  15 N15            2.8129     7.1836     0.9554 N.3     
  16 C16            1.7191     7.9613     1.5555 C.3     
  17 C17            2.1973     9.3937     1.8077 C.3     
  18 O18            2.6541     9.9620     0.5775 O.3     
  19 C19            3.7197     9.2301    -0.0342 C.3     
  20 C20            3.2570     7.7961    -0.3051 C.3     
  21 C21           -1.2042    -0.8862    -0.2559 C.3     
  22 C22           -1.1696     2.1365     0.1745 C.ar    
  23 C23           -2.0132     2.0086     1.2701 C.ar    
  24 C24           -3.1487     2.7894     1.3603 C.ar    
  25 C25           -3.4463     3.6977     0.3607 C.ar    
  26 C26           -2.6085     3.8270    -0.7316 C.ar    
  27 C27           -1.4680     3.0532    -0.8245 C.ar    
  28 S28           -4.2197     2.6279     2.7501 S.o2    
  29 O29           -5.4890     3.0431     2.2644 O.2     
  30 O30           -4.0080     1.2977     3.2030 O.2     
  31 C31           -3.5785     3.8208     3.9568 C.3     
  32 C32            3.5312    -3.4146    -0.5598 C.3     
  33 C33            5.0586    -3.5043    -0.5539 C.3     
  34 H34            3.1995     0.7917     0.0408 H       
  35 H35            3.6555     2.9378    -0.4284 H       
  36 H36            4.3197     5.2792    -0.0821 H       
  37 H37            0.4635     6.1398     1.5588 H       
  38 H38           -0.2142     3.8034     1.2049 H       
  39 H39            0.8675     7.9763     0.8754 H       
  40 H40            1.4234     7.5046     2.5000 H       
  41 H41            1.3725     9.9890     2.1996 H       
  42 H42            3.0142     9.3829     2.5292 H       
  43 H43            3.9961     9.7072    -0.9745 H       
  44 H44            4.5809     9.2146     0.6337 H       
  45 H45            4.0839     7.2189    -0.7188 H       
  46 H46            2.4299     7.8085    -1.0150 H       
  47 H47           -1.4826    -0.9544    -1.3076 H       
  48 H48           -0.9690    -1.8808     0.1229 H       
  49 H49           -2.0341    -0.4675     0.3132 H       
  50 H50           -1.7817     1.2990     2.0507 H       
  51 H51           -4.3350     4.3069     0.4333 H       
  52 H52           -2.8437     4.5369    -1.5107 H       
  53 H53           -0.8116     3.1578    -1.6757 H       
  54 H54           -3.6135     4.8234     3.5304 H       
  55 H55           -4.1887     3.7884     4.8594 H       
  56 H56           -2.5479     3.5676     4.2057 H       
  57 H57            3.1282    -4.0274     0.2466 H       
  58 H58            3.1498    -3.7748    -1.5152 H       
  59 H59            5.4616    -2.8915    -1.3603 H       
  60 H60            5.4400    -3.1441     0.4015 H       
  61 H61            5.3623    -4.5410    -0.6989 H       
@<TRIPOS>BOND
   1    1    2 1
   2    1    5 1
   3    1   22 1
   4    2    3 2
   5    2   21 1
   6    3    4 1
   7    3    6 1
   8    4    5 2
   9    4   34 1
  10    5    9 1
  11    6    7 2
  12    6    8 1
  13    8   32 1
  14    9   10 ar
  15    9   14 ar
  16   10   11 ar
  17   10   35 1
  18   11   12 ar
  19   11   36 1
  20   12   13 ar
  21   12   15 1
  22   13   14 ar
  23   13   37 1
  24   14   38 1
  25   15   16 1
  26   15   20 1
  27   16   17 1
  28   16   39 1
  29   16   40 1
  30   17   18 1
  31   17   41 1
  32   17   42 1
  33   18   19 1
  34   19   20 1
  35   19   43 1
  36   19   44 1
  37   20   45 1
  38   20   46 1
  39   21   47 1
  40   21   48 1
  41   21   49 1
  42   22   23 ar
  43   22   27 ar
  44   23   24 ar
  45   23   50 1
  46   24   25 ar
  47   24   28 1
  48   25   26 ar
  49   25   51 1
  50   26   27 ar
  51   26   52 1
  52   27   53 1
  53   28   29 2
  54   28   30 2
  55   28   31 1
  56   31   54 1
  57   31   55 1
  58   31   56 1
  59   32   33 1
  60   32   57 1
  61   32   58 1
  62   33   59 1
  63   33   60 1
  64   33   61 1

#	End of record

