#	Name: ASD01910061
#	Creating user name:	WinNT
#	Creation time:	15. 06. 2019 19:55

#	Modifying user name:	WinNT
#	Modification time:	15. 06. 2019 19:55

#	Program:	/corina/corina34_cracker 3.40 0067  02.08.2006

@<TRIPOS>MOLECULE
ASD01910061
  47   50    0    0    0
SMALL
NO_CHARGES


@<TRIPOS>ATOM
   1 C1            -0.0158     1.3125     0.0093 C.2     
   2 N2             0.0021    -0.0041     0.0020 N.2     
   3 N3            -1.3213    -0.4625     0.0130 N.pl3   
   4 C4            -2.1428     0.6239     0.0272 C.2     
   5 C5            -1.3586     1.7340     0.0305 C.2     
   6 C6             1.1743     2.1988     0.0027 C.ar    
   7 C7             2.4550     1.6498    -0.0130 C.ar    
   8 C8             3.5583     2.4789    -0.0196 C.ar    
   9 C9             3.3947     3.8524    -0.0102 C.ar    
  10 C10            2.1257     4.4027     0.0054 C.ar    
  11 C11            1.0153     3.5831     0.0063 C.ar    
  12 C12           -1.7286    -1.8028     0.0093 C.ar    
  13 N13           -3.5360     0.6012     0.0413 N.am    
  14 C14           -4.2286     1.7573     0.0545 C.2     
  15 C15           -5.6989     1.7333     0.0694 C.2     
  16 C16           -6.3375     2.8837     0.0820 C.2     
  17 C17           -7.8331     3.0080     0.1066 C.3     
  18 C18           -8.4784     1.6846    -0.3097 C.3     
  19 C19           -7.8418     0.5540     0.5080 C.3     
  20 C20           -6.3845     0.3981     0.0630 C.3     
  21 O21           -3.6377     2.8204     0.0542 O.2     
  22 C22           -0.9959    -2.7507    -0.6929 C.ar    
  23 C23           -1.4000    -4.0714    -0.6947 C.ar    
  24 C24           -2.5332    -4.4501     0.0015 C.ar    
  25 C25           -3.2650    -3.5086     0.7017 C.ar    
  26 C26           -2.8626    -2.1874     0.7124 C.ar    
  27 H27           -1.7043     2.7571     0.0409 H       
  28 H28            2.5839     0.5776    -0.0197 H       
  29 H29            4.5514     2.0545    -0.0318 H       
  30 H30            4.2608     4.4974    -0.0146 H       
  31 H31            2.0036     5.4758     0.0127 H       
  32 H32            0.0249     4.0138     0.0185 H       
  33 H33           -4.0072    -0.2466     0.0415 H       
  34 H34           -5.7516     3.7910     0.0747 H       
  35 H35           -8.1577     3.2670     1.1144 H       
  36 H36           -8.1418     3.7933    -0.5833 H       
  37 H37           -9.5497     1.7213    -0.1117 H       
  38 H38           -8.3052     1.5108    -1.3717 H       
  39 H39           -7.8799     0.8028     1.5685 H       
  40 H40           -8.3802    -0.3764     0.3276 H       
  41 H41           -6.3566    -0.0241    -0.9415 H       
  42 H42           -5.8669    -0.2723     0.7491 H       
  43 H43           -0.1111    -2.4554    -1.2373 H       
  44 H44           -0.8306    -4.8090    -1.2406 H       
  45 H45           -2.8476    -5.4833    -0.0020 H       
  46 H46           -4.1496    -3.8075     1.2444 H       
  47 H47           -3.4344    -1.4526     1.2598 H       
@<TRIPOS>BOND
   1    1    2 2
   2    1    6 1
   3    1    5 1
   4    2    3 1
   5    3    4 1
   6    3   12 1
   7    4    5 2
   8    4   13 1
   9    5   27 1
  10    6    7 ar
  11    6   11 ar
  12    7    8 ar
  13    7   28 1
  14    8    9 ar
  15    8   29 1
  16    9   10 ar
  17    9   30 1
  18   10   11 ar
  19   10   31 1
  20   11   32 1
  21   12   22 ar
  22   12   26 ar
  23   13   14 am
  24   13   33 1
  25   14   15 1
  26   14   21 2
  27   15   16 2
  28   15   20 1
  29   16   17 1
  30   16   34 1
  31   17   18 1
  32   17   35 1
  33   17   36 1
  34   18   19 1
  35   18   37 1
  36   18   38 1
  37   19   20 1
  38   19   39 1
  39   19   40 1
  40   20   41 1
  41   20   42 1
  42   22   23 ar
  43   22   43 1
  44   23   24 ar
  45   23   44 1
  46   24   25 ar
  47   24   45 1
  48   25   26 ar
  49   25   46 1
  50   26   47 1

#	End of record

