#	Name: ASD01811173
#	Creating user name:	WinNT
#	Creation time:	15. 06. 2019 19:26

#	Modifying user name:	WinNT
#	Modification time:	15. 06. 2019 19:26

#	Program:	/corina/corina34_cracker 3.40 0067  02.08.2006

@<TRIPOS>MOLECULE
ASD01811173
  32   33    0    0    0
SMALL
NO_CHARGES


@<TRIPOS>ATOM
   1 C1            -0.0144     1.4729     0.0455 C.2     
   2 C2             0.0038    -0.0042     0.0192 C.ar    
   3 C3             1.2151    -0.6874    -0.1186 C.ar    
   4 C4             1.2340    -2.0675    -0.1435 C.ar    
   5 C5             0.0579    -2.7827    -0.0324 C.ar    
   6 C6            -1.1604    -2.1128     0.1060 C.ar    
   7 C7            -1.1862    -0.7195     0.1376 C.ar    
   8 O8             0.9091     2.0828     0.5461 O.2     
   9 O9            -1.0525     2.1433    -0.4906 O.3     
  10 C10            0.0885    -4.2891    -0.0611 C.3     
  11 C11            2.5037     0.0844    -0.2410 C.3     
  12 C12            3.4574    -0.1166     0.9485 C.3     
  13 C13            4.6031    -0.1489    -0.0768 C.3     
  14 C14            3.5625    -0.6180    -1.1073 C.3     
  15 C15           -2.3791    -2.8559     0.2210 C.1     
  16 N16           -3.3458    -3.4455     0.3123 N.1     
  17 C17           -1.0033     3.5932    -0.4291 C.3     
  18 H18            2.1729    -2.5903    -0.2506 H       
  19 H19           -2.1246    -0.1966     0.2488 H       
  20 H20            0.2029    -4.6695     0.9540 H       
  21 H21           -0.8426    -4.6634    -0.4866 H       
  22 H22            0.9274    -4.6239    -0.6712 H       
  23 H23            2.3472     1.1307    -0.5032 H       
  24 H24            3.4996     0.7382     1.6235 H       
  25 H25            3.3115    -1.0624     1.4702 H       
  26 H26            5.0217     0.8336    -0.2950 H       
  27 H27            5.3660    -0.8955     0.1443 H       
  28 H28            3.4453    -1.7009    -1.1477 H       
  29 H29            3.6896    -0.1680    -2.0920 H       
  30 H30           -1.8975     4.0072    -0.8949 H       
  31 H31           -0.9557     3.9113     0.6124 H       
  32 H32           -0.1196     3.9495    -0.9586 H       
@<TRIPOS>BOND
   1    1    2 1
   2    1    8 2
   3    1    9 1
   4    2    3 ar
   5    2    7 ar
   6    3    4 ar
   7    3   11 1
   8    4    5 ar
   9    4   18 1
  10    5    6 ar
  11    5   10 1
  12    6    7 ar
  13    6   15 1
  14    7   19 1
  15    9   17 1
  16   10   20 1
  17   10   21 1
  18   10   22 1
  19   11   12 1
  20   11   14 1
  21   11   23 1
  22   12   13 1
  23   12   24 1
  24   12   25 1
  25   13   14 1
  26   13   26 1
  27   13   27 1
  28   14   28 1
  29   14   29 1
  30   15   16 3
  31   17   30 1
  32   17   31 1
  33   17   32 1

#	End of record

