#	Name: ASD04560138
#	Creating user name:	WinNT
#	Creation time:	15. 06. 2019 20:49

#	Modifying user name:	WinNT
#	Modification time:	15. 06. 2019 20:49

#	Program:	/corina/corina34_cracker 3.40 0067  02.08.2006

@<TRIPOS>MOLECULE
ASD04560138
  48   51    0    0    0
SMALL
NO_CHARGES


@<TRIPOS>ATOM
   1 C1             0.0439     1.3997     0.0251 C.ar    
   2 C2             0.0947     0.0298     0.0232 C.ar    
   3 C3             1.3253    -0.6229     0.0152 C.ar    
   4 C4             2.5075     0.1138     0.0091 C.ar    
   5 C5             2.4630     1.4839     0.0114 C.ar    
   6 C6             1.2291     2.1420     0.0190 C.ar    
   7 C7             1.1778     3.6156     0.0210 C.2     
   8 O8             2.2092     4.2600     0.0160 O.2     
   9 N9            -0.0121     4.2485     0.0283 N.am    
  10 C10           -0.0627     5.6424     0.1432 C.ar    
  11 C11           -1.0476     6.3598    -0.5229 C.ar    
  12 C12            0.8166     7.6851     1.0406 C.ar    
  13 C13            0.8686     6.3096     0.9282 C.ar    
  14 S14            1.3866    -2.3839     0.0134 S.3     
  15 C15           -1.0960     7.7352    -0.4077 C.ar    
  16 C16           -0.1629     8.3990     0.3710 C.ar    
  17 F17           -0.2120     9.7445     0.4823 F       
  18 C18            3.1672    -2.7302     0.0023 C.3     
  19 C19            3.3890    -4.2208    -0.0003 C.2     
  20 C20            4.7538    -4.7594    -0.0091 C.2     
  21 O21            2.4393    -4.9753     0.0049 O.2     
  22 C22            5.1160    -6.0804    -0.0123 C.2     
  23 C23            6.5370    -6.0413    -0.0215 C.2     
  24 N24            6.8709    -4.7751    -0.0227 N.2     
  25 O25            5.9014    -4.0534    -0.0214 O.3     
  26 C26            7.4589    -7.2044    -0.0275 C.ar    
  27 C27            6.9530    -8.4978     0.0818 C.ar    
  28 C28            8.8342    -7.0066    -0.1485 C.ar    
  29 C29            9.6873    -8.0926    -0.1535 C.ar    
  30 C30            9.1790    -9.3751    -0.0392 C.ar    
  31 C31            7.8141    -9.5762     0.0758 C.ar    
  32 Cl32           9.4722    -5.3986    -0.2930 Cl      
  33 Cl33          10.2563   -10.7364    -0.0467 Cl      
  34 H34           -0.9105     1.9052     0.0268 H       
  35 H35           -0.8203    -0.5440     0.0283 H       
  36 H36            3.4602    -0.3950     0.0029 H       
  37 H37            3.3799     2.0546     0.0073 H       
  38 H38           -0.8335     3.7379    -0.0461 H       
  39 H39           -1.7751     5.8425    -1.1308 H       
  40 H40            1.5407     8.2044     1.6510 H       
  41 H41            1.6327     5.7532     1.4506 H       
  42 H42           -1.8618     8.2935    -0.9256 H       
  43 H43            3.6165    -2.2945    -0.8901 H       
  44 H44            3.6273    -2.2959     0.8898 H       
  45 H45            4.4729    -6.9481    -0.0085 H       
  46 H46            5.8885    -8.6563     0.1716 H       
  47 H47           10.7525    -7.9410    -0.2471 H       
  48 H48            7.4227   -10.5788     0.1650 H       
@<TRIPOS>BOND
   1    1    2 ar
   2    1    6 ar
   3    1   34 1
   4    2    3 ar
   5    2   35 1
   6    3    4 ar
   7    3   14 1
   8    4    5 ar
   9    4   36 1
  10    5    6 ar
  11    5   37 1
  12    6    7 1
  13    7    8 2
  14    7    9 am
  15    9   10 1
  16    9   38 1
  17   10   11 ar
  18   10   13 ar
  19   11   15 ar
  20   11   39 1
  21   12   13 ar
  22   12   16 ar
  23   12   40 1
  24   13   41 1
  25   14   18 1
  26   15   16 ar
  27   15   42 1
  28   16   17 1
  29   18   19 1
  30   18   43 1
  31   18   44 1
  32   19   20 1
  33   19   21 2
  34   20   22 2
  35   20   25 1
  36   22   23 1
  37   22   45 1
  38   23   24 2
  39   23   26 1
  40   24   25 1
  41   26   27 ar
  42   26   28 ar
  43   27   31 ar
  44   27   46 1
  45   28   29 ar
  46   28   32 1
  47   29   30 ar
  48   29   47 1
  49   30   31 ar
  50   30   33 1
  51   31   48 1

#	End of record

