#	Name: ASD05060034
#	Creating user name:	WinNT
#	Creation time:	15. 06. 2019 20:56

#	Modifying user name:	WinNT
#	Modification time:	15. 06. 2019 20:56

#	Program:	/corina/corina34_cracker 3.40 0067  02.08.2006

@<TRIPOS>MOLECULE
ASD05060034
  48   50    0    0    0
SMALL
NO_CHARGES


@<TRIPOS>ATOM
   1 C1            -0.0106     1.2821    -0.5221 C.ar    
   2 C2            -0.0531     0.0113     0.0579 C.ar    
   3 C3             1.2580     1.9014    -0.6970 C.ar    
   4 C4             2.3929     1.2144    -0.2834 C.ar    
   5 C5             2.2565    -0.0413     0.2816 C.ar    
   6 N6             1.0751    -0.5946     0.4337 N.ar    
   7 C7             1.3669     3.2476    -1.3064 C.ar    
   8 C8             0.8258     4.3562    -0.6561 C.ar    
   9 C9             0.9307     5.6074    -1.2284 C.ar    
  10 C10            1.5710     5.7633    -2.4447 C.ar    
  11 C11            2.1098     4.6673    -3.0946 C.ar    
  12 C12            2.0158     3.4118    -2.5297 C.ar    
  13 C13            3.4862    -0.7880     0.7302 C.3     
  14 C14            3.7583     1.8305    -0.4489 C.3     
  15 C15            4.5142     1.7332     0.8512 C.2     
  16 O16            3.9973     1.2166     1.8134 O.2     
  17 O17            5.7618     2.2204     0.9402 O.3     
  18 C18            4.5255     1.0839    -1.5420 C.3     
  19 C19            5.7876     1.8685    -1.9058 C.3     
  20 C20            6.5548     1.1219    -2.9989 C.3     
  21 S21           -1.7245    -0.5311     0.1620 S.3     
  22 C22           -2.3209     0.9465    -0.5685 C.2     
  23 C23           -1.3330     1.7687    -0.8663 C.2     
  24 C24           -3.7763     1.2377    -0.8294 C.3     
  25 C25            1.6817     7.1324    -3.0645 C.3     
  26 H26            0.3253     4.2356     0.2933 H       
  27 H27            0.5117     6.4667    -0.7259 H       
  28 H28            2.6085     4.7951    -4.0439 H       
  29 H29            2.4371     2.5569    -3.0377 H       
  30 H30            3.6416    -0.6246     1.7966 H       
  31 H31            3.3535    -1.8533     0.5414 H       
  32 H32            4.3529    -0.4262     0.1771 H       
  33 H33            3.6524     2.8782    -0.7302 H       
  34 H34            6.2065     2.1350     1.7946 H       
  35 H35            4.8045     0.0947    -1.1792 H       
  36 H36            3.8938     0.9824    -2.4245 H       
  37 H37            5.5086     2.8577    -2.2687 H       
  38 H38            6.4193     1.9700    -1.0233 H       
  39 H39            7.4540     1.6808    -3.2581 H       
  40 H40            6.8339     0.1327    -2.6361 H       
  41 H41            5.9232     1.0204    -3.8814 H       
  42 H42           -1.4969     2.7330    -1.3242 H       
  43 H43           -4.3812     0.3949    -0.4949 H       
  44 H44           -4.0706     2.1350    -0.2849 H       
  45 H45           -3.9298     1.3940    -1.8972 H       
  46 H46            2.6001     7.6116    -2.7254 H       
  47 H47            1.7000     7.0393    -4.1504 H       
  48 H48            0.8250     7.7367    -2.7661 H       
@<TRIPOS>BOND
   1    1    2 ar
   2    1    3 ar
   3    1   23 1
   4    2   21 1
   5    2    6 ar
   6    3    4 ar
   7    3    7 1
   8    4    5 ar
   9    4   14 1
  10    5    6 ar
  11    5   13 1
  12    7    8 ar
  13    7   12 ar
  14    8    9 ar
  15    8   26 1
  16    9   10 ar
  17    9   27 1
  18   10   11 ar
  19   10   25 1
  20   11   12 ar
  21   11   28 1
  22   12   29 1
  23   13   30 1
  24   13   31 1
  25   13   32 1
  26   14   15 1
  27   14   18 1
  28   14   33 1
  29   15   16 2
  30   15   17 1
  31   17   34 1
  32   18   19 1
  33   18   35 1
  34   18   36 1
  35   19   20 1
  36   19   37 1
  37   19   38 1
  38   20   39 1
  39   20   40 1
  40   20   41 1
  41   21   22 1
  42   22   23 2
  43   22   24 1
  44   23   42 1
  45   24   43 1
  46   24   44 1
  47   24   45 1
  48   25   46 1
  49   25   47 1
  50   25   48 1

#	End of record

