#	Name: ASD01412068
#	Creating user name:	WinNT
#	Creation time:	15. 06. 2019 19:20

#	Modifying user name:	WinNT
#	Modification time:	15. 06. 2019 19:20

#	Program:	/corina/corina34_cracker 3.40 0067  02.08.2006

@<TRIPOS>MOLECULE
ASD01412068
  50   52    0    0    0
SMALL
NO_CHARGES


@<TRIPOS>ATOM
   1 C1             0.4535     1.9194    -1.3889 C.ar    
   2 C2             0.4695     0.5221    -1.4022 C.ar    
   3 C3             1.6356    -0.1741    -1.0833 C.ar    
   4 C4             2.7900     0.5151    -0.7501 C.ar    
   5 C5             2.7859     1.9250    -0.7333 C.ar    
   6 C6             1.6014     2.6260    -1.0575 C.ar    
   7 C7             1.6392    -1.6810    -1.1009 C.3     
   8 C8            -0.7556    -0.2220    -1.7554 C.2     
   9 N9            -1.9152     0.4390    -1.9424 N.am    
  10 O10           -0.7184    -1.4311    -1.8778 O.2     
  11 C11           -3.1309    -0.2995    -2.2930 C.3     
  12 N12            4.0630     0.1084    -0.3974 N.pl3   
  13 C13            4.8277     1.2088    -0.1679 C.2     
  14 C14            4.0833     2.3228    -0.3624 C.2     
  15 C15            6.2819     1.2585     0.2403 C.3     
  16 O16            6.7609     2.5911     0.0188 O.3     
  17 C17            5.9448     3.6150     0.5938 C.3     
  18 C18            4.6272     3.7197    -0.1879 C.3     
  19 C19            6.4152     0.9012     1.7220 C.3     
  20 C20            7.8820     1.0108     2.1431 C.3     
  21 C21            8.0186     0.6315     3.6190 C.3     
  22 C22            7.0899     0.2717    -0.6048 C.3     
  23 C23            6.9921     0.6577    -2.0583 C.2     
  24 O24            6.2874     1.5806    -2.3922 O.2     
  25 O25            7.6879    -0.0239    -2.9819 O.3     
  26 C26            1.5864     4.0579    -1.0451 C.1     
  27 N27            1.5745     5.1938    -1.0352 N.1     
  28 H28           -0.4524     2.4505    -1.6412 H       
  29 H29            1.8075    -2.0321    -2.1190 H       
  30 H30            2.4345    -2.0501    -0.4533 H       
  31 H31            0.6783    -2.0509    -0.7432 H       
  32 H32           -1.9448     1.4036    -1.8448 H       
  33 H33           -2.9756    -0.8298    -3.2325 H       
  34 H34           -3.3606    -1.0164    -1.5047 H       
  35 H35           -3.9610     0.3984    -2.4026 H       
  36 H36            4.3618    -0.8116    -0.3251 H       
  37 H37            5.7312     3.3682     1.6338 H       
  38 H38            6.4714     4.5682     0.5475 H       
  39 H39            4.8117     4.1684    -1.1640 H       
  40 H40            3.9142     4.3270     0.3697 H       
  41 H41            5.8140     1.5886     2.3171 H       
  42 H42            6.0664    -0.1190     1.8825 H       
  43 H43            8.4855     0.3352     1.5370 H       
  44 H44            8.2262     2.0348     1.9978 H       
  45 H45            7.6744    -0.3925     3.7644 H       
  46 H46            9.0636     0.7096     3.9190 H       
  47 H47            7.4151     1.3071     4.2252 H       
  48 H48            8.1338     0.2953    -0.2921 H       
  49 H49            6.6923    -0.7340    -0.4684 H       
  50 H50            7.5930     0.2606    -3.9013 H       
@<TRIPOS>BOND
   1    1    2 ar
   2    1    6 ar
   3    1   28 1
   4    2    3 ar
   5    2    8 1
   6    3    4 ar
   7    3    7 1
   8    4    5 ar
   9    4   12 1
  10    5    6 ar
  11    5   14 1
  12    6   26 1
  13    7   29 1
  14    7   30 1
  15    7   31 1
  16    8    9 am
  17    8   10 2
  18    9   11 1
  19    9   32 1
  20   11   33 1
  21   11   34 1
  22   11   35 1
  23   12   13 1
  24   12   36 1
  25   13   14 2
  26   13   15 1
  27   14   18 1
  28   15   16 1
  29   15   19 1
  30   15   22 1
  31   16   17 1
  32   17   18 1
  33   17   37 1
  34   17   38 1
  35   18   39 1
  36   18   40 1
  37   19   20 1
  38   19   41 1
  39   19   42 1
  40   20   21 1
  41   20   43 1
  42   20   44 1
  43   21   45 1
  44   21   46 1
  45   21   47 1
  46   22   23 1
  47   22   48 1
  48   22   49 1
  49   23   24 2
  50   23   25 1
  51   25   50 1
  52   26   27 3

#	End of record

