#	Name: ASD03081104
#	Creating user name:	WinNT
#	Creation time:	15. 06. 2019 20:26

#	Modifying user name:	WinNT
#	Modification time:	15. 06. 2019 20:26

#	Program:	/corina/corina34_cracker 3.40 0067  02.08.2006

@<TRIPOS>MOLECULE
ASD03081104
  24   26    0    0    0
SMALL
NO_CHARGES


@<TRIPOS>ATOM
   1 O1            -0.0144     1.2085     0.0087 O.3     
   2 N2             0.0021    -0.0041     0.0020 N.2     
   3 C3             1.2349    -0.4420    -0.0121 C.2     
   4 N4             2.0455     0.6368    -0.0141 N.2     
   5 C5             1.2410     1.6828    -0.0008 C.2     
   6 C6             2.4351    -4.4271    -0.0438 C.ar    
   7 N7             1.1467    -4.1481    -0.0299 N.ar    
   8 C8             0.7225    -2.8961    -0.0194 C.ar    
   9 C9             1.6630    -1.8633    -0.0231 C.ar    
  10 C10            3.0173    -2.2048    -0.0379 C.ar    
  11 N11            3.3551    -3.4829    -0.0477 N.ar    
  12 C12            2.9951     3.4589    -0.0091 C.ar    
  13 C13            1.6452     3.1049     0.0023 C.ar    
  14 C14            0.6805     4.1189     0.0162 C.ar    
  15 C15            1.1114     5.4341     0.0180 C.ar    
  16 C16            2.4682     5.7020     0.0061 C.ar    
  17 N17            3.3552     4.7254    -0.0064 N.ar    
  18 H18            2.7465    -5.4612    -0.0475 H       
  19 H19           -0.3346    -2.6752    -0.0084 H       
  20 H20            3.7767    -1.4368    -0.0409 H       
  21 H21            3.7509     2.6874    -0.0154 H       
  22 H22           -0.3729     3.8811     0.0249 H       
  23 H23            0.3956     6.2428     0.0282 H       
  24 H24            2.8071     6.7275     0.0075 H       
@<TRIPOS>BOND
   1    1    2 1
   2    1    5 1
   3    2    3 2
   4    3    4 1
   5    3    9 1
   6    4    5 2
   7    5   13 1
   8    6    7 ar
   9    6   11 ar
  10    6   18 1
  11    7    8 ar
  12    8    9 ar
  13    8   19 1
  14    9   10 ar
  15   10   11 ar
  16   10   20 1
  17   12   13 ar
  18   12   17 ar
  19   12   21 1
  20   13   14 ar
  21   14   15 ar
  22   14   22 1
  23   15   16 ar
  24   15   23 1
  25   16   17 ar
  26   16   24 1

#	End of record

