#	Name: ASD00680003
#	Creating user name:	WinNT
#	Creation time:	15. 06. 2019 18:37

#	Modifying user name:	WinNT
#	Modification time:	15. 06. 2019 18:37

#	Program:	/corina/corina34_cracker 3.40 0067  02.08.2006

@<TRIPOS>MOLECULE
ASD00680003
  58   60    0    0    0
SMALL
NO_CHARGES


@<TRIPOS>ATOM
   1 C1            -0.2771     1.0965     0.1148 C.ar    
   2 C2            -0.4023    -0.0496     0.9018 C.ar    
   3 C3             0.6305    -0.9608     0.9583 C.ar    
   4 C4             1.7945    -0.7395     0.2339 C.ar    
   5 O5             2.8103    -1.6399     0.2921 O.3     
   6 C6             1.9228     0.3996    -0.5502 C.ar    
   7 C7             0.8943     1.3152    -0.6122 C.ar    
   8 C8            -1.3856     2.0739     0.0466 C.2     
   9 C9            -1.7118     2.8065     1.1402 C.2     
  10 C10           -0.8712     2.7137     2.3875 C.3     
  11 C11            0.1724     3.8325     2.3836 C.3     
  12 C12           -2.8858     3.6914     1.1089 C.ar    
  13 C13           -3.9824     3.4345     1.9387 C.ar    
  14 C14           -5.0791     4.2693     1.9037 C.ar    
  15 C15           -5.0972     5.3588     1.0502 C.ar    
  16 C16           -4.0166     5.6196     0.2257 C.ar    
  17 C17           -2.9097     4.7980     0.2533 C.ar    
  18 C18           -2.1381     2.2521    -1.2145 C.ar    
  19 C19           -1.4974     2.7603    -2.3459 C.ar    
  20 C20           -2.2020     2.9249    -3.5191 C.ar    
  21 C21           -3.5477     2.5864    -3.5764 C.ar    
  22 O22           -4.2388     2.7502    -4.7346 O.3     
  23 C23           -4.1886     2.0806    -2.4530 C.ar    
  24 C24           -3.4893     1.9073    -1.2779 C.ar    
  25 C25           -5.6195     2.3820    -4.7237 C.3     
  26 C26           -6.2256     2.6351    -6.1056 C.3     
  27 N27           -5.5937     1.7444    -7.0881 N.3     
  28 C28           -5.9235     0.3394    -6.8137 C.3     
  29 C29           -5.9739     2.1167    -8.4573 C.3     
  30 H30           -1.3069    -0.2221     1.4659 H       
  31 H31            0.5344    -1.8478     1.5669 H       
  32 H32            2.7590    -2.3346    -0.3786 H       
  33 H33            2.8296     0.5682    -1.1121 H       
  34 H34            0.9946     2.2006    -1.2224 H       
  35 H35           -1.5102     2.8158     3.2647 H       
  36 H36           -0.3678     1.7473     2.4153 H       
  37 H37           -0.3305     4.7986     2.4281 H       
  38 H38            0.8258     3.7229     3.2491 H       
  39 H39            0.7653     3.7732     1.4709 H       
  40 H40           -3.9700     2.5844     2.6047 H       
  41 H41           -5.9265     4.0724     2.5437 H       
  42 H42           -5.9595     6.0088     1.0273 H       
  43 H43           -4.0385     6.4715    -0.4377 H       
  44 H44           -2.0653     5.0053    -0.3875 H       
  45 H45           -0.4511     3.0244    -2.3019 H       
  46 H46           -1.7070     3.3180    -4.3948 H       
  47 H47           -5.2352     1.8185    -2.5014 H       
  48 H48           -3.9873     1.5096    -0.4059 H       
  49 H49           -5.7117     1.3249    -4.4746 H       
  50 H50           -6.1486     2.9781    -3.9802 H       
  51 H51           -7.2973     2.4388    -6.0737 H       
  52 H52           -6.0547     3.6725    -6.3929 H       
  53 H53           -7.0039     0.2036    -6.8629 H       
  54 H54           -5.4430    -0.2982    -7.5557 H       
  55 H55           -5.5684     0.0704    -5.8189 H       
  56 H56           -5.6554     3.1398    -8.6573 H       
  57 H57           -5.4923     1.4414    -9.1645 H       
  58 H58           -7.0561     2.0452    -8.5660 H       
@<TRIPOS>BOND
   1    1    2 ar
   2    1    7 ar
   3    1    8 1
   4    2    3 ar
   5    2   30 1
   6    3    4 ar
   7    3   31 1
   8    4    5 1
   9    4    6 ar
  10    5   32 1
  11    6    7 ar
  12    6   33 1
  13    7   34 1
  14    8    9 2
  15    8   18 1
  16    9   10 1
  17    9   12 1
  18   10   11 1
  19   10   35 1
  20   10   36 1
  21   11   37 1
  22   11   38 1
  23   11   39 1
  24   12   13 ar
  25   12   17 ar
  26   13   14 ar
  27   13   40 1
  28   14   15 ar
  29   14   41 1
  30   15   16 ar
  31   15   42 1
  32   16   17 ar
  33   16   43 1
  34   17   44 1
  35   18   19 ar
  36   18   24 ar
  37   19   20 ar
  38   19   45 1
  39   20   21 ar
  40   20   46 1
  41   21   22 1
  42   21   23 ar
  43   22   25 1
  44   23   24 ar
  45   23   47 1
  46   24   48 1
  47   25   26 1
  48   25   49 1
  49   25   50 1
  50   26   27 1
  51   26   51 1
  52   26   52 1
  53   27   28 1
  54   27   29 1
  55   28   53 1
  56   28   54 1
  57   28   55 1
  58   29   56 1
  59   29   57 1
  60   29   58 1

#	End of record

