#	Name: ASD01913303
#	Creating user name:	WinNT
#	Creation time:	15. 06. 2019 20:01

#	Modifying user name:	WinNT
#	Modification time:	15. 06. 2019 20:01

#	Program:	/corina/corina34_cracker 3.40 0067  02.08.2006

@<TRIPOS>MOLECULE
ASD01913303
  43   45    0    0    0
SMALL
NO_CHARGES


@<TRIPOS>ATOM
   1 C1            -0.0169     1.3971     0.0097 C.ar    
   2 C2             0.0021    -0.0041     0.0020 C.ar    
   3 C3             1.2454    -0.6502    -0.0133 C.ar    
   4 N4             2.3460     0.0795    -0.0199 N.ar    
   5 C5             2.2851     1.4038    -0.0122 C.ar    
   6 N6             1.1293     2.0528     0.0023 N.ar    
   7 N7             3.4624     2.1297    -0.0191 N.pl3   
   8 C8             3.4200     3.5941    -0.0108 C.3     
   9 C9            -1.2168    -0.7557     0.0101 C.1     
  10 C10           -2.2161    -1.3719     0.0167 C.1     
  11 C11           -3.4349    -2.1235     0.0248 C.ar    
  12 C12           -3.3984    -3.5204     0.0169 C.ar    
  13 C13           -4.5764    -4.2376     0.0252 C.ar    
  14 C14           -5.7924    -3.5773     0.0409 C.ar    
  15 C15           -5.8364    -2.1942     0.0487 C.ar    
  16 C16           -4.6665    -1.4637     0.0464 C.ar    
  17 C17            4.7064     4.1450    -0.6293 C.3     
  18 C18            4.6622     5.6744    -0.6206 C.3     
  19 C19            4.5349     6.1728     0.8203 C.3     
  20 C20            3.2485     5.6218     1.4388 C.3     
  21 C21            3.2928     4.0925     1.4301 C.3     
  22 C22            4.4907     7.7021     0.8289 C.3     
  23 H23           -0.9548     1.9326     0.0171 H       
  24 H24            1.3027    -1.7287    -0.0193 H       
  25 H25            4.3161     1.6693    -0.0294 H       
  26 H26            2.5627     3.9361    -0.5906 H       
  27 H27           -2.4501    -4.0371     0.0040 H       
  28 H28           -4.5498    -5.3173     0.0192 H       
  29 H29           -6.7117    -4.1441     0.0466 H       
  30 H30           -6.7890    -1.6856     0.0606 H       
  31 H31           -4.7023    -0.3843     0.0525 H       
  32 H32            5.5637     3.8031    -0.0495 H       
  33 H33            4.7971     3.7900    -1.6558 H       
  34 H34            5.5786     6.0669    -1.0613 H       
  35 H35            3.8048     6.0163    -1.2004 H       
  36 H36            5.3922     5.8308     1.4001 H       
  37 H37            3.1579     5.9769     2.4653 H       
  38 H38            2.3912     5.9638     0.8590 H       
  39 H39            2.3763     3.7000     1.8707 H       
  40 H40            4.1501     3.7505     2.0099 H       
  41 H41            3.6333     8.0441     0.2492 H       
  42 H42            4.4000     8.0572     1.8555 H       
  43 H43            5.4071     8.0946     0.3883 H       
@<TRIPOS>BOND
   1    1    2 ar
   2    1    6 ar
   3    1   23 1
   4    2    3 ar
   5    2    9 1
   6    3    4 ar
   7    3   24 1
   8    4    5 ar
   9    5    6 ar
  10    5    7 1
  11    7    8 1
  12    7   25 1
  13    8   17 1
  14    8   21 1
  15    8   26 1
  16    9   10 3
  17   10   11 1
  18   11   12 ar
  19   11   16 ar
  20   12   13 ar
  21   12   27 1
  22   13   14 ar
  23   13   28 1
  24   14   15 ar
  25   14   29 1
  26   15   16 ar
  27   15   30 1
  28   16   31 1
  29   17   18 1
  30   17   32 1
  31   17   33 1
  32   18   19 1
  33   18   34 1
  34   18   35 1
  35   19   20 1
  36   19   22 1
  37   19   36 1
  38   20   21 1
  39   20   37 1
  40   20   38 1
  41   21   39 1
  42   21   40 1
  43   22   41 1
  44   22   42 1
  45   22   43 1

#	End of record

