#	Name: ASD06390025
#	Creating user name:	WinNT
#	Creation time:	15. 06. 2019 21:06

#	Modifying user name:	WinNT
#	Modification time:	15. 06. 2019 21:06

#	Program:	/corina/corina34_cracker 3.40 0067  02.08.2006

@<TRIPOS>MOLECULE
ASD06390025
  46   48    0    0    0
SMALL
NO_CHARGES


@<TRIPOS>ATOM
   1 Cl1            0.7421     0.3158     1.9770 Cl      
   2 Cl2           -3.1388     3.8267     0.7672 Cl      
   3 C3             0.2218     1.6804     1.0385 C.ar    
   4 C4             1.0836     2.2409     0.1440 C.ar    
   5 N5             2.3689     1.7189    -0.0118 N.3     
   6 C6             2.4229     0.7810    -1.1412 C.3     
   7 C7             3.7860     0.1408    -1.1978 C.2     
   8 N8             4.0678    -0.7605    -2.1594 N.am    
   9 C9             5.3921    -1.3931    -2.2275 C.3     
  10 C10            5.2116    -2.9143    -2.2439 C.3     
  11 C11            4.2711    -3.3001    -3.3879 C.3     
  12 N12            4.1224    -4.7570    -3.4272 N.am    
  13 S13            3.9574    -5.5336    -4.8805 S.o2    
  14 C14            5.5379    -5.2533    -5.7255 C.3     
  15 C15            5.5100    -5.9304    -7.0972 C.3     
  16 O16            3.8147    -6.9037    -4.5315 O.2     
  17 O17            2.9101    -4.8316    -5.5360 O.2     
  18 C18            2.9020    -2.6537    -3.1650 C.3     
  19 C19            3.0545    -1.1337    -3.1557 C.3     
  20 O20            4.6294     0.4367    -0.3780 O.2     
  21 C21            0.6687     3.3600    -0.6313 C.ar    
  22 N22            1.3098     4.0663    -1.5473 N.2     
  23 S23            0.3762     5.1903    -2.0807 S.3     
  24 N24           -0.8997     4.9121    -1.2358 N.2     
  25 C25           -0.6832     3.8770    -0.4402 C.ar    
  26 C26           -1.5246     3.2420     0.5100 C.ar    
  27 C27           -1.0701     2.1745     1.2129 C.ar    
  28 H28            3.0481     2.4569    -0.1219 H       
  29 H29            1.6643     0.0095    -1.0093 H       
  30 H30            2.2356     1.3197    -2.0701 H       
  31 H31            5.9022    -1.0759    -3.1370 H       
  32 H32            5.9803    -1.1043    -1.3565 H       
  33 H33            6.1793    -3.3939    -2.3910 H       
  34 H34            4.7840    -3.2401    -1.2957 H       
  35 H35            4.6873    -2.9520    -4.3332 H       
  36 H36            4.1205    -5.2668    -2.6019 H       
  37 H37            5.6973    -4.1824    -5.8521 H       
  38 H38            6.3481    -5.6732    -5.1294 H       
  39 H39            5.3506    -7.0013    -6.9705 H       
  40 H40            4.6998    -5.5105    -7.6933 H       
  41 H41            6.4597    -5.7620    -7.6049 H       
  42 H42            2.2258    -2.9477    -3.9677 H       
  43 H43            2.4961    -2.9820    -2.2082 H       
  44 H44            2.1008    -0.6738    -2.8969 H       
  45 H45            3.3701    -0.7949    -4.1424 H       
  46 H46           -1.7237     1.6988     1.9291 H       
@<TRIPOS>BOND
   1    1    3 1
   2    2   26 1
   3    3    4 ar
   4    3   27 ar
   5    4    5 1
   6    4   21 ar
   7    5    6 1
   8    5   28 1
   9    6    7 1
  10    6   29 1
  11    6   30 1
  12    7    8 am
  13    7   20 2
  14    8    9 1
  15    8   19 1
  16    9   10 1
  17    9   31 1
  18    9   32 1
  19   10   11 1
  20   10   33 1
  21   10   34 1
  22   11   12 1
  23   11   18 1
  24   11   35 1
  25   12   13 am
  26   12   36 1
  27   13   14 1
  28   13   16 2
  29   13   17 2
  30   14   15 1
  31   14   37 1
  32   14   38 1
  33   15   39 1
  34   15   40 1
  35   15   41 1
  36   18   19 1
  37   18   42 1
  38   18   43 1
  39   19   44 1
  40   19   45 1
  41   21   22 2
  42   21   25 ar
  43   22   23 1
  44   23   24 1
  45   24   25 2
  46   25   26 ar
  47   26   27 ar
  48   27   46 1

#	End of record

