#	Name: ASD02038883
#	Creating user name:	WinNT
#	Creation time:	15. 06. 2019 20:17

#	Modifying user name:	WinNT
#	Modification time:	15. 06. 2019 20:17

#	Program:	/corina/corina34_cracker 3.40 0067  02.08.2006

@<TRIPOS>MOLECULE
ASD02038883
  50   51    0    0    0
SMALL
NO_CHARGES


@<TRIPOS>ATOM
   1 N1            -0.0179     1.4660     0.0101 N.am    
   2 C2             0.0021    -0.0041     0.0020 C.3     
   3 C3             1.4812    -0.4420    -0.0417 C.3     
   4 C4             2.1956     0.8049    -0.6268 C.3     
   5 C5             1.3719     1.9577    -0.0005 C.3     
   6 C6            -1.1236     2.2365     0.0197 C.2     
   7 O7            -2.2237     1.7205     0.0223 O.2     
   8 O8            -1.0093     3.5780     0.0264 O.3     
   9 C9            -0.6521    -0.5324     1.2526 C.2     
  10 N10           -1.0833    -1.8084     1.3000 N.am    
  11 O11           -0.7906     0.1907     2.2164 O.2     
  12 C12           -1.5541    -3.8188     2.5752 C.2     
  13 C13           -1.7192    -2.3220     2.5158 C.3     
  14 C14           -3.2089    -1.9736     2.4983 C.3     
  15 C15           -3.3776    -0.4643     2.3125 C.3     
  16 O16           -0.9655    -4.3971     1.6926 O.2     
  17 O17           -2.0608    -4.5094     3.6086 O.3     
  18 C18           -1.8639    -5.9480     3.6000 C.3     
  19 O19           -3.8461    -2.6605     1.4192 O.3     
  20 C20           -2.2424     4.3446     0.0367 C.3     
  21 C21           -1.9188     5.8165     0.0431 C.ar    
  22 C22           -1.7762     6.4980    -1.1511 C.ar    
  23 C23           -1.4793     7.8481    -1.1452 C.ar    
  24 C24           -1.3255     8.5167     0.0548 C.ar    
  25 C25           -1.4689     7.8354     1.2490 C.ar    
  26 C26           -1.7700     6.4862     1.2432 C.ar    
  27 H27           -0.5211    -0.3771    -0.8784 H       
  28 H28            1.8482    -0.6617     0.9609 H       
  29 H29            1.6093    -1.3030    -0.6977 H       
  30 H30            3.2356     0.8471    -0.3030 H       
  31 H31            2.1257     0.8207    -1.7144 H       
  32 H32            1.4517     2.8565    -0.6119 H       
  33 H33            1.7113     2.1579     1.0158 H       
  34 H34           -0.9725    -2.3868     0.5292 H       
  35 H35           -1.2506    -1.8698     3.3898 H       
  36 H36           -3.6641    -2.2768     3.4412 H       
  37 H37           -2.9224    -0.1612     1.3696 H       
  38 H38           -4.4389    -0.2161     2.3000 H       
  39 H39           -2.8916     0.0596     3.1356 H       
  40 H40           -2.3210    -6.3826     4.4889 H       
  41 H41           -2.3264    -6.3726     2.7090 H       
  42 H42           -0.7965    -6.1686     3.5955 H       
  43 H43           -3.4910    -2.4388     0.5475 H       
  44 H44           -2.8266     4.1049    -0.8518 H       
  45 H45           -2.8179     4.0953     0.9281 H       
  46 H46           -1.8965     5.9756    -2.0887 H       
  47 H47           -1.3673     8.3804    -2.0782 H       
  48 H48           -1.0928     9.5713     0.0594 H       
  49 H49           -1.3483     8.3577     2.1866 H       
  50 H50           -1.8857     5.9547     2.1762 H       
@<TRIPOS>BOND
   1    1    2 1
   2    1    5 1
   3    1    6 am
   4    2    3 1
   5    2    9 1
   6    2   27 1
   7    3    4 1
   8    3   28 1
   9    3   29 1
  10    4    5 1
  11    4   30 1
  12    4   31 1
  13    5   32 1
  14    5   33 1
  15    6    7 2
  16    6    8 1
  17    8   20 1
  18    9   10 am
  19    9   11 2
  20   10   13 1
  21   10   34 1
  22   12   16 2
  23   12   17 1
  24   12   13 1
  25   13   14 1
  26   13   35 1
  27   14   15 1
  28   14   19 1
  29   14   36 1
  30   15   37 1
  31   15   38 1
  32   15   39 1
  33   17   18 1
  34   18   40 1
  35   18   41 1
  36   18   42 1
  37   19   43 1
  38   20   21 1
  39   20   44 1
  40   20   45 1
  41   21   22 ar
  42   21   26 ar
  43   22   23 ar
  44   22   46 1
  45   23   24 ar
  46   23   47 1
  47   24   25 ar
  48   24   48 1
  49   25   26 ar
  50   25   49 1
  51   26   50 1

#	End of record

