#	Name: ASD01140443
#	Creating user name:	WinNT
#	Creation time:	15. 06. 2019 19:00

#	Modifying user name:	WinNT
#	Modification time:	15. 06. 2019 19:00

#	Program:	/corina/corina34_cracker 3.40 0067  02.08.2006

@<TRIPOS>MOLECULE
ASD01140443
  38   40    0    0    0
SMALL
NO_CHARGES


@<TRIPOS>ATOM
   1 C1            -0.1016     1.5560    -0.1843 C.2     
   2 C2            -0.2066     0.2017    -0.1177 C.2     
   3 C3             0.9516    -0.5797     0.0414 C.2     
   4 C4             2.1641     0.0102     0.1282 C.2     
   5 C5             1.1706     2.1567    -0.0926 C.2     
   6 N6             1.5589     3.4234    -0.1267 N.2     
   7 N7             2.2823     1.3700     0.0626 N.pl3   
   8 C8             3.3635     2.2039     0.1217 C.2     
   9 C9             2.8938     3.4772     0.0020 C.2     
  10 C10            3.7170     4.7120     0.0127 C.ar    
  11 C11            3.2852     5.8335     0.7180 C.ar    
  12 C12            4.0537     6.9795     0.7252 C.ar    
  13 C13            5.2528     7.0163     0.0322 C.ar    
  14 C14            5.6858     5.9035    -0.6703 C.ar    
  15 C15            4.9266     4.7513    -0.6778 C.ar    
  16 C16            4.8037     1.7926     0.2883 C.3     
  17 C17            5.3848     1.4421    -1.0572 C.2     
  18 N18            6.6687     1.0434    -1.1535 N.am    
  19 O19            4.6973     1.5187    -2.0533 O.2     
  20 C20            7.2337     0.7026    -2.4615 C.3     
  21 C21            7.4992     0.9509     0.0498 C.3     
  22 F22            6.0017     8.1407     0.0412 F       
  23 F23            0.8515    -1.9254     0.1080 F       
  24 H24           -0.9842     2.1654    -0.3108 H       
  25 H25           -1.1751    -0.2714    -0.1862 H       
  26 H26            3.0478    -0.5985     0.2510 H       
  27 H27            2.3502     5.8060     1.2579 H       
  28 H28            3.7198     7.8492     1.2716 H       
  29 H29            6.6211     5.9365    -1.2095 H       
  30 H30            5.2673     3.8827    -1.2217 H       
  31 H31            5.3686     2.6163     0.7247 H       
  32 H32            4.8600     0.9250     0.9457 H       
  33 H33            7.6674     1.5946    -2.9135 H       
  34 H34            8.0077    -0.0546    -2.3368 H       
  35 H35            6.4462     0.3143    -3.1074 H       
  36 H36            6.9112     1.2415     0.9203 H       
  37 H37            7.8479    -0.0745     0.1726 H       
  38 H38            8.3565     1.6169    -0.0484 H       
@<TRIPOS>BOND
   1    1    2 2
   2    1    5 1
   3    1   24 1
   4    2    3 1
   5    2   25 1
   6    3    4 2
   7    3   23 1
   8    4    7 1
   9    4   26 1
  10    5    7 1
  11    5    6 2
  12    6    9 1
  13    7    8 1
  14    8    9 2
  15    8   16 1
  16    9   10 1
  17   10   11 ar
  18   10   15 ar
  19   11   12 ar
  20   11   27 1
  21   12   13 ar
  22   12   28 1
  23   13   14 ar
  24   13   22 1
  25   14   15 ar
  26   14   29 1
  27   15   30 1
  28   16   17 1
  29   16   31 1
  30   16   32 1
  31   17   18 am
  32   17   19 2
  33   18   20 1
  34   18   21 1
  35   20   33 1
  36   20   34 1
  37   20   35 1
  38   21   36 1
  39   21   37 1
  40   21   38 1

#	End of record

