#	Name: ASD07300685
#	Creating user name:	WinNT
#	Creation time:	15. 06. 2019 21:10

#	Modifying user name:	WinNT
#	Modification time:	15. 06. 2019 21:10

#	Program:	/corina/corina34_cracker 3.40 0067  02.08.2006

@<TRIPOS>MOLECULE
ASD07300685
  41   42    0    0    0
SMALL
NO_CHARGES


@<TRIPOS>ATOM
   1 C1            -0.0167     1.3794     0.0096 C.ar    
   2 C2             0.0021    -0.0041     0.0020 C.ar    
   3 C3             1.2180    -0.6643    -0.0132 C.ar    
   4 C4             2.3883     0.1011    -0.0203 C.ar    
   5 C5             2.2848     1.4906    -0.0118 C.ar    
   6 N6             1.1045     2.0748     0.0027 N.ar    
   7 O7             5.0836     0.0389    -0.0459 O.3     
   8 B8             3.7960    -0.5938    -0.0370 Du      
   9 O9             4.0766    -2.0008    -0.0462 O.3     
  10 C10            5.2113    -2.1527     0.8324 C.3     
  11 C11            5.8941    -0.7698     0.8326 C.3     
  12 C12            7.3208    -0.8795     0.2910 C.3     
  13 C13            5.9023    -0.1796     2.2441 C.3     
  14 C14            4.7476    -2.5186     2.2437 C.3     
  15 C15            6.1661    -3.2185     0.2906 C.3     
  16 C16           -1.3384     2.1033     0.0198 C.3     
  17 O17           -2.4034     1.1504     0.0196 O.3     
  18 C18           -3.7070     1.7356     0.0290 C.3     
  19 C19           -4.7631     0.6286     0.0279 C.3     
  20 H20           -0.9223    -0.5626     0.0082 H       
  21 H21            1.2621    -1.7434    -0.0191 H       
  22 H22            3.1805     2.0939    -0.0168 H       
  23 H23            7.7687     0.1131     0.2433 H       
  24 H24            7.9123    -1.5137     0.9513 H       
  25 H25            7.2979    -1.3161    -0.7075 H       
  26 H26            4.8809    -0.1235     2.6205 H       
  27 H27            6.4969    -0.8152     2.9003 H       
  28 H28            6.3351     0.8205     2.2173 H       
  29 H29            4.2168    -3.4702     2.2165 H       
  30 H30            5.6137    -2.6042     2.9000 H       
  31 H31            4.0819    -1.7419     2.6202 H       
  32 H32            6.4989    -2.9345    -0.7078 H       
  33 H33            7.0291    -3.3027     0.9510 H       
  34 H34            5.6504    -4.1776     0.2426 H       
  35 H35           -1.4061     2.7236     0.9135 H       
  36 H36           -1.4145     2.7333    -0.8664 H       
  37 H37           -3.8238     2.3484     0.9229 H       
  38 H38           -3.8322     2.3580    -0.8571 H       
  39 H39           -4.6463     0.0159    -0.8660 H       
  40 H40           -4.6379     0.0062     0.9140 H       
  41 H41           -5.7574     1.0750     0.0351 H       
@<TRIPOS>BOND
   1    1    2 ar
   2    1    6 ar
   3    1   16 1
   4    2    3 ar
   5    2   20 1
   6    3    4 ar
   7    3   21 1
   8    4    5 ar
   9    4    8 1
  10    5    6 ar
  11    5   22 1
  12    7    8 1
  13    7   11 1
  14    8    9 1
  15    9   10 1
  16   10   11 1
  17   10   14 1
  18   10   15 1
  19   11   12 1
  20   11   13 1
  21   12   23 1
  22   12   24 1
  23   12   25 1
  24   13   26 1
  25   13   27 1
  26   13   28 1
  27   14   29 1
  28   14   30 1
  29   14   31 1
  30   15   32 1
  31   15   33 1
  32   15   34 1
  33   16   17 1
  34   16   35 1
  35   16   36 1
  36   17   18 1
  37   18   19 1
  38   18   37 1
  39   18   38 1
  40   19   39 1
  41   19   40 1
  42   19   41 1

#	End of record

