#	Name: ASD01884766
#	Creating user name:	WinNT
#	Creation time:	15. 06. 2019 19:48

#	Modifying user name:	WinNT
#	Modification time:	15. 06. 2019 19:48

#	Program:	/corina/corina34_cracker 3.40 0067  02.08.2006

@<TRIPOS>MOLECULE
ASD01884766
  44   47    0    0    0
SMALL
NO_CHARGES


@<TRIPOS>ATOM
   1 C1            -0.0168     1.3861     0.0097 C.2     
   2 C2             0.0021    -0.0041     0.0020 C.2     
   3 C3            -1.2195    -0.6996     0.0099 C.2     
   4 C4            -2.4055     0.0015     0.0249 C.2     
   5 N5            -2.4135     1.3554     0.0318 N.am    
   6 C6            -1.2663     2.0589     0.0311 C.2     
   7 O7            -1.3005     3.2774     0.0385 O.2     
   8 C8            -3.6938     2.0672     0.0474 C.3     
   9 C9             1.2076     2.1287     0.0020 C.1     
  10 N10            2.1789     2.7178    -0.0041 N.1     
  11 C11           -4.1196     2.3042     1.4734 C.ar    
  12 C12           -1.2316    -2.1841     0.0015 C.ar    
  13 C13           -3.7325     3.4598     2.1264 C.ar    
  14 C14           -4.1215     3.6793     3.4336 C.ar    
  15 C15           -4.9012     2.7390     4.0913 C.ar    
  16 C16           -5.2884     1.5803     3.4339 C.ar    
  17 C17           -4.9015     1.3681     2.1248 C.ar    
  18 C18           -0.7397    -2.8745    -1.0968 C.ar    
  19 C19           -0.7564    -4.2695    -1.0929 C.ar    
  20 C20           -1.2692    -4.9631     0.0189 C.ar    
  21 C21           -1.7573    -4.2492     1.1096 C.ar    
  22 C22           -1.7335    -2.8843     1.1033 C.ar    
  23 C23           -0.3324    -5.2945    -2.0501 C.2     
  24 C24           -0.5986    -6.4860    -1.4923 C.2     
  25 N25           -1.1583    -6.3083    -0.2566 N.pl3   
  26 O26           -5.2848     2.9525     5.3774 O.3     
  27 C27           -6.0868     1.9416     5.9915 C.3     
  28 F28           -5.3834     0.7324     6.0047 F       
  29 F29           -6.3892     2.3197     7.3040 F       
  30 F30           -7.2730     1.7833     5.2668 F       
  31 H31            0.9394    -0.5405    -0.0101 H       
  32 H32           -3.3420    -0.5365     0.0310 H       
  33 H33           -3.5837     3.0242    -0.4627 H       
  34 H34           -4.4486     1.4685    -0.4625 H       
  35 H35           -3.1251     4.1913     1.6141 H       
  36 H36           -3.8185     4.5820     3.9433 H       
  37 H37           -5.8954     0.8468     3.9437 H       
  38 H38           -5.2029     0.4664     1.6125 H       
  39 H39           -0.3477    -2.3367    -1.9474 H       
  40 H40           -2.1522    -4.7767     1.9653 H       
  41 H41           -2.1145    -2.3393     1.9543 H       
  42 H42            0.1099    -5.1238    -3.0205 H       
  43 H43           -0.4008    -7.4434    -1.9513 H       
  44 H44           -1.4361    -7.0233     0.3372 H       
@<TRIPOS>BOND
   1    1    2 2
   2    1    9 1
   3    1    6 1
   4    2    3 1
   5    2   31 1
   6    3    4 2
   7    3   12 1
   8    4    5 1
   9    4   32 1
  10    5    8 1
  11    5    6 am
  12    6    7 2
  13    8   11 1
  14    8   33 1
  15    8   34 1
  16    9   10 3
  17   11   13 ar
  18   11   17 ar
  19   12   18 ar
  20   12   22 ar
  21   13   14 ar
  22   13   35 1
  23   14   15 ar
  24   14   36 1
  25   15   26 1
  26   15   16 ar
  27   16   17 ar
  28   16   37 1
  29   17   38 1
  30   18   19 ar
  31   18   39 1
  32   19   20 ar
  33   19   23 1
  34   20   21 ar
  35   20   25 1
  36   21   22 ar
  37   21   40 1
  38   22   41 1
  39   23   24 2
  40   23   42 1
  41   24   25 1
  42   24   43 1
  43   25   44 1
  44   26   27 1
  45   27   28 1
  46   27   29 1
  47   27   30 1

#	End of record

