#	Name: ASD04230002
#	Creating user name:	WinNT
#	Creation time:	15. 06. 2019 20:48

#	Modifying user name:	WinNT
#	Modification time:	15. 06. 2019 20:48

#	Program:	/corina/corina34_cracker 3.40 0067  02.08.2006

@<TRIPOS>MOLECULE
ASD04230002
  44   48    0    0    0
SMALL
NO_CHARGES


@<TRIPOS>ATOM
   1 C1             1.5007     4.6792     1.7115 C.ar    
   2 C2             2.4971     5.3933     2.3642 C.ar    
   3 C3             3.7691     4.8778     2.4669 C.ar    
   4 C4             4.0605     3.6295     1.8995 C.ar    
   5 C5             3.0391     2.8951     1.2676 C.ar    
   6 C6             1.7656     3.4389     1.1692 C.ar    
   7 C7             5.3754     3.0995     1.9617 C.2     
   8 C8             5.6538     1.9620     1.2154 C.2     
   9 C9             4.5624     1.4128     0.3903 C.2     
  10 O10            3.2910     1.6572     0.7792 O.3     
  11 C11            6.9837     1.3309     1.2466 C.2     
  12 N12            7.2233     0.2272     0.5111 N.am    
  13 O13            7.8661     1.8056     1.9362 O.2     
  14 C14            8.5145    -0.3070     0.4519 C.ar    
  15 C15            8.6945    -1.6823     0.3699 C.ar    
  16 C16            9.9691    -2.2137     0.3113 C.ar    
  17 C17           11.0701    -1.3814     0.3343 C.ar    
  18 C18           10.8990    -0.0005     0.4167 C.ar    
  19 C19            9.6157     0.5363     0.4692 C.ar    
  20 C20           12.0817     0.8956     0.4419 C.2     
  21 O21            4.7986     0.7598    -0.6089 O.2     
  22 Br22           2.1041     7.0836     3.1153 Br      
  23 C23           13.3794     0.5082     0.2950 C.2     
  24 N24           14.1471     1.6357     0.3809 N.pl3   
  25 C25           13.2958     2.6923     0.5795 C.2     
  26 N26           12.0557     2.2275     0.6076 N.2     
  27 C27           15.4952     1.8388     0.3058 C.2     
  28 C28           16.0112     3.0800     0.4255 C.2     
  29 C29           15.1652     4.1827     0.6296 C.2     
  30 C30           13.8202     3.9952     0.7060 C.2     
  31 H31            0.5080     5.0970     1.6318 H       
  32 H32            4.5393     5.4327     2.9820 H       
  33 H33            0.9818     2.8906     0.6677 H       
  34 H34            6.1358     3.5664     2.5700 H       
  35 H35            6.5002    -0.1966     0.0227 H       
  36 H36            7.8364    -2.3377     0.3524 H       
  37 H37           10.1040    -3.2834     0.2477 H       
  38 H38           12.0645    -1.8003     0.2886 H       
  39 H39            9.4780     1.6056     0.5331 H       
  40 H40           13.7346    -0.4998     0.1399 H       
  41 H41           16.1549     0.9981     0.1495 H       
  42 H42           17.0795     3.2261     0.3645 H       
  43 H43           15.5808     5.1749     0.7253 H       
  44 H44           13.1605     4.8358     0.8628 H       
@<TRIPOS>BOND
   1    1    2 ar
   2    1    6 ar
   3    1   31 1
   4    2    3 ar
   5    2   22 1
   6    3    4 ar
   7    3   32 1
   8    4    5 ar
   9    4    7 1
  10    5    6 ar
  11    5   10 1
  12    6   33 1
  13    7    8 2
  14    7   34 1
  15    8    9 1
  16    8   11 1
  17    9   10 1
  18    9   21 2
  19   11   12 am
  20   11   13 2
  21   12   14 1
  22   12   35 1
  23   14   15 ar
  24   14   19 ar
  25   15   16 ar
  26   15   36 1
  27   16   17 ar
  28   16   37 1
  29   17   18 ar
  30   17   38 1
  31   18   19 ar
  32   18   20 1
  33   19   39 1
  34   20   23 2
  35   20   26 1
  36   23   24 1
  37   23   40 1
  38   24   25 1
  39   24   27 1
  40   25   26 2
  41   25   30 1
  42   27   28 2
  43   27   41 1
  44   28   29 1
  45   28   42 1
  46   29   30 2
  47   29   43 1
  48   30   44 1

#	End of record

