#	Name: ASD00841365
#	Creating user name:	WinNT
#	Creation time:	15. 06. 2019 18:41

#	Modifying user name:	WinNT
#	Modification time:	15. 06. 2019 18:41

#	Program:	/corina/corina34_cracker 3.40 0067  02.08.2006

@<TRIPOS>MOLECULE
ASD00841365
  85   90    0    0    0
SMALL
NO_CHARGES


@<TRIPOS>ATOM
   1 N1            -0.0159     1.3183     0.0093 N.ar    
   2 C2             0.0021    -0.0041     0.0020 C.ar    
   3 C3             1.2069    -0.6955    -0.0132 C.ar    
   4 C4             2.3925     0.0180    -0.0207 C.ar    
   5 C5             2.3308     1.4049    -0.0127 C.ar    
   6 C6             1.0980     2.0259     0.0025 C.ar    
   7 C7             1.2224    -2.2024    -0.0209 C.3     
   8 C8             0.4763    -2.7343    -1.2260 C.2     
   9 O9             2.5880    -2.6958    -0.0097 O.3     
  10 C10            3.3814    -2.3221    -1.0313 C.2     
  11 N11            4.6600    -2.7452    -1.0812 N.am    
  12 O12            2.9446    -1.6033    -1.9082 O.2     
  13 C13            5.5380    -2.3458    -2.1895 C.3     
  14 C14            6.1423    -3.6053    -2.8182 C.3     
  15 C15            6.8368    -4.4299    -1.7320 C.3     
  16 C16            5.8107    -4.8595    -0.6810 C.3     
  17 C17            5.2042    -3.6096    -0.0251 C.3     
  18 N18            7.4461    -5.6219    -2.3369 N.3     
  19 C19            8.2232    -6.3774    -1.3445 C.3     
  20 C20            8.7741    -7.6496    -1.9929 C.3     
  21 N21            9.6094    -7.2864    -3.1460 N.3     
  22 C22            8.8323    -6.5309    -4.1385 C.3     
  23 C23            8.2815    -5.2587    -3.4901 C.3     
  24 C24           10.2187    -8.4784    -3.7510 C.3     
  25 O25            0.7562    -2.5398    -2.3900 O.2     
  26 N26           -0.5539    -3.4626    -0.7639 N.am    
  27 C27            0.4503    -2.7460     1.1593 C.ar    
  28 C28           -0.5978    -3.4898     0.6316 C.ar    
  29 C29            0.6151    -2.6249     2.5208 C.ar    
  30 C30           -1.3213    -3.9958     2.8683 C.ar    
  31 C31           -1.4865    -4.1167     1.5019 C.ar    
  32 F32           -2.1865    -4.6067     3.7070 F       
  33 C33           -1.0174    -5.8570    -2.0393 C.ar    
  34 C34           -1.3475    -6.8955    -1.1883 C.ar    
  35 C35           -0.1997    -6.0872    -3.1302 C.ar    
  36 C36            0.2897    -7.3561    -3.3724 C.ar    
  37 C37           -0.0400    -8.3999    -2.5200 C.ar    
  38 C38           -0.8603    -8.1662    -1.4260 C.ar    
  39 O39            0.4398    -9.6492    -2.7565 O.3     
  40 H40           -1.9865    -6.7131    -0.3369 H       
  41 C41            0.0592   -10.6750    -1.8374 C.3     
  42 C42           -0.2716    -3.2499     3.3828 C.ar    
  43 F43           -0.1136    -3.1336     4.7194 F       
  44 S44           -1.6459    -4.2388    -1.7372 S.o2    
  45 O45           -2.8262    -4.4047    -0.9634 O.2     
  46 O46           -1.6240    -3.5603    -2.9856 O.2     
  47 O47           -1.1673    -0.6919     0.0099 O.3     
  48 C48           -3.5777    -0.8652     0.0330 C.3     
  49 C49           -2.3720     0.0766     0.0260 C.3     
  50 H50            3.3442    -0.4925    -0.0322 H       
  51 H51            3.2375     1.9916    -0.0178 H       
  52 H52            1.0444     3.1046     0.0084 H       
  53 H53            4.9586    -1.8057    -2.9382 H       
  54 H54            6.3362    -1.7071    -1.8114 H       
  55 H55            5.3510    -4.1991    -3.2757 H       
  56 H56            6.8692    -3.3195    -3.5785 H       
  57 H57            7.6115    -3.8271    -1.2581 H       
  58 H58            5.0225    -5.4415    -1.1586 H       
  59 H59            6.3015    -5.4663     0.0799 H       
  60 H60            5.9767    -3.0764     0.5291 H       
  61 H61            4.4032    -3.9049     0.6527 H       
  62 H62            9.0503    -5.7641    -0.9868 H       
  63 H63            7.5799    -6.6455    -0.5064 H       
  64 H64            9.3749    -8.1970    -1.2666 H       
  65 H65            7.9463    -8.2756    -2.3262 H       
  66 H66            9.4756    -6.2628    -4.9766 H       
  67 H67            8.0053    -7.1442    -4.4962 H       
  68 H68            7.6806    -4.7112    -4.2164 H       
  69 H69            9.1092    -4.6327    -3.1568 H       
  70 H70            9.4343    -9.1564    -4.0873 H       
  71 H71           10.8315    -8.1810    -4.6019 H       
  72 H72           10.8424    -8.9822    -3.0125 H       
  73 H73            1.4348    -2.0436     2.9166 H       
  74 H74           -2.3064    -4.6989     1.1078 H       
  75 H75            0.0564    -5.2744    -3.7936 H       
  76 H76            0.9282    -7.5355    -4.2248 H       
  77 H77           -1.1187    -8.9772    -0.7612 H       
  78 H78           -1.0263   -10.7742    -1.8327 H       
  79 H79            0.5091   -11.6203    -2.1411 H       
  80 H80            0.4043   -10.4132    -0.8372 H       
  81 H81           -3.5390    -1.4986     0.9192 H       
  82 H82           -4.4966    -0.2790     0.0452 H       
  83 H83           -3.5566    -1.4891    -0.8606 H       
  84 H84           -2.3931     0.7004     0.9196 H       
  85 H85           -2.4108     0.7099    -0.8602 H       
@<TRIPOS>BOND
   1    1    2 ar
   2    1    6 ar
   3    2    3 ar
   4    2   47 1
   5    3    4 ar
   6    3    7 1
   7    4    5 ar
   8    4   50 1
   9    5    6 ar
  10    5   51 1
  11    6   52 1
  12    7    8 1
  13    7    9 1
  14    7   27 1
  15    8   25 2
  16    8   26 am
  17    9   10 1
  18   10   11 am
  19   10   12 2
  20   11   13 1
  21   11   17 1
  22   13   14 1
  23   13   53 1
  24   13   54 1
  25   14   15 1
  26   14   55 1
  27   14   56 1
  28   15   16 1
  29   15   18 1
  30   15   57 1
  31   16   17 1
  32   16   58 1
  33   16   59 1
  34   17   60 1
  35   17   61 1
  36   18   19 1
  37   18   23 1
  38   19   20 1
  39   19   62 1
  40   19   63 1
  41   20   21 1
  42   20   64 1
  43   20   65 1
  44   21   22 1
  45   21   24 1
  46   22   23 1
  47   22   66 1
  48   22   67 1
  49   23   68 1
  50   23   69 1
  51   24   70 1
  52   24   71 1
  53   24   72 1
  54   26   44 am
  55   26   28 1
  56   27   28 ar
  57   27   29 ar
  58   28   31 ar
  59   29   42 ar
  60   29   73 1
  61   30   31 ar
  62   30   32 1
  63   30   42 ar
  64   31   74 1
  65   33   34 ar
  66   33   35 ar
  67   33   44 1
  68   34   40 1
  69   34   38 ar
  70   35   36 ar
  71   35   75 1
  72   36   37 ar
  73   36   76 1
  74   37   38 ar
  75   37   39 1
  76   38   77 1
  77   39   41 1
  78   41   78 1
  79   41   79 1
  80   41   80 1
  81   42   43 1
  82   44   45 2
  83   44   46 2
  84   47   49 1
  85   48   49 1
  86   48   81 1
  87   48   82 1
  88   48   83 1
  89   49   84 1
  90   49   85 1

#	End of record

