#	Name: ASD03331379
#	Creating user name:	WinNT
#	Creation time:	15. 06. 2019 20:39

#	Modifying user name:	WinNT
#	Modification time:	15. 06. 2019 20:39

#	Program:	/corina/corina34_cracker 3.40 0067  02.08.2006

@<TRIPOS>MOLECULE
ASD03331379
  66   68    0    0    0
SMALL
NO_CHARGES


@<TRIPOS>ATOM
   1 C1            -1.2140    -0.7714     2.1319 C.2     
   2 C2            -0.6887    -0.2206     0.8312 C.3     
   3 O3            -0.4555    -1.2815     2.9222 O.2     
   4 O4            -2.5235    -0.6903     2.4150 O.3     
   5 C5             1.2172    -1.6263     0.8804 C.2     
   6 C6             2.3022    -2.0503     1.5765 C.2     
   7 C7             3.1884    -1.1372     2.3886 C.3     
   8 C8             2.8688     0.3068     1.9716 C.3     
   9 C9             1.3483     0.4875     1.9345 C.3     
  10 N10            0.7785    -0.2928     0.8258 N.3     
  11 N11            1.3678    -3.8078     0.5639 N.2     
  12 N12            2.4168    -3.3938     1.3984 N.am    
  13 C13            0.6421    -2.7528     0.2552 C.2     
  14 C14            3.3691    -4.1864     1.9289 C.2     
  15 N15            3.3661    -5.5091     1.6703 N.am    
  16 O16            4.2304    -3.7084     2.6403 O.2     
  17 C17            4.5735    -7.5947     1.3850 C.2     
  18 C18            4.4012    -6.3706     2.2469 C.3     
  19 C19            3.9849    -6.7942     3.6570 C.3     
  20 C20            2.6142    -7.4717     3.6021 C.3     
  21 O21            3.6459    -8.0026     0.7186 O.2     
  22 N22            5.7585    -8.2361     1.3546 N.am    
  23 C23            5.9599    -9.3597     0.4364 C.3     
  24 C24            5.0160    -7.7742     4.2203 C.3     
  25 C25            3.9083    -5.5604     4.5584 C.3     
  26 C26           -0.5640    -2.7484    -0.6078 C.ar    
  27 C27           -0.6740    -1.8296    -1.6503 C.ar    
  28 C28           -1.7992    -1.8297    -2.4517 C.ar    
  29 C29           -2.8183    -2.7426    -2.2188 C.ar    
  30 C30           -2.7114    -3.6562    -1.1839 C.ar    
  31 C31           -1.5878    -3.6664    -0.3822 C.ar    
  32 F32           -3.9179    -2.7395    -3.0038 F       
  33 F33           -1.9079    -0.9401    -3.4626 F       
  34 C34           -2.9586    -1.2415     3.6859 C.3     
  35 C35           -4.4707    -1.0583     3.8304 C.3     
  36 H36           -1.0844    -0.8072     0.0021 H       
  37 H37           -1.0018     0.8179     0.7236 H       
  38 H38            2.9826    -1.2700     3.4507 H       
  39 H39            4.2357    -1.3587     2.1830 H       
  40 H40            3.3012     0.9995     2.6936 H       
  41 H41            3.2838     0.5015     0.9826 H       
  42 H42            0.9199     0.1447     2.8763 H       
  43 H43            1.1123     1.5423     1.7935 H       
  44 H44            2.6785    -5.8906     1.1023 H       
  45 H45            5.3433    -5.8244     2.2949 H       
  46 H46            2.6688    -8.3508     2.9599 H       
  47 H47            2.3177    -7.7735     4.6067 H       
  48 H48            1.8796    -6.7736     3.2008 H       
  49 H49            6.4780    -7.9537     1.9406 H       
  50 H50            5.8176    -9.0205    -0.5897 H       
  51 H51            6.9716    -9.7481     0.5538 H       
  52 H52            5.2402   -10.1467     0.6620 H       
  53 H53            5.9929    -7.2921     4.2578 H       
  54 H54            4.7204    -8.0747     5.2255 H       
  55 H55            5.0694    -8.6540     3.5790 H       
  56 H56            3.1737    -4.8622     4.1571 H       
  57 H57            3.6117    -5.8622     5.5629 H       
  58 H58            4.8848    -5.0777     4.5975 H       
  59 H59            0.1188    -1.1188    -1.8309 H       
  60 H60           -3.5069    -4.3646    -1.0060 H       
  61 H61           -1.5041    -4.3827     0.4217 H       
  62 H62           -2.7161    -2.3035     3.7234 H       
  63 H63           -2.4505    -0.7239     4.4995 H       
  64 H64           -4.7132     0.0037     3.7929 H       
  65 H65           -4.9788    -1.5760     3.0168 H       
  66 H66           -4.7973    -1.4721     4.7845 H       
@<TRIPOS>BOND
   1    1    2 1
   2    1    3 2
   3    1    4 1
   4    2   10 1
   5    2   36 1
   6    2   37 1
   7    4   34 1
   8    5    6 2
   9    5   10 1
  10    5   13 1
  11    6    7 1
  12    6   12 1
  13    7    8 1
  14    7   38 1
  15    7   39 1
  16    8    9 1
  17    8   40 1
  18    8   41 1
  19    9   10 1
  20    9   42 1
  21    9   43 1
  22   11   12 1
  23   11   13 2
  24   12   14 am
  25   13   26 1
  26   14   15 am
  27   14   16 2
  28   15   18 1
  29   15   44 1
  30   17   21 2
  31   17   22 am
  32   17   18 1
  33   18   19 1
  34   18   45 1
  35   19   20 1
  36   19   24 1
  37   19   25 1
  38   20   46 1
  39   20   47 1
  40   20   48 1
  41   22   23 1
  42   22   49 1
  43   23   50 1
  44   23   51 1
  45   23   52 1
  46   24   53 1
  47   24   54 1
  48   24   55 1
  49   25   56 1
  50   25   57 1
  51   25   58 1
  52   26   27 ar
  53   26   31 ar
  54   27   28 ar
  55   27   59 1
  56   28   29 ar
  57   28   33 1
  58   29   30 ar
  59   29   32 1
  60   30   31 ar
  61   30   60 1
  62   31   61 1
  63   34   35 1
  64   34   62 1
  65   34   63 1
  66   35   64 1
  67   35   65 1
  68   35   66 1

#	End of record

