#	Name: ASD02588020
#	Creating user name:	WinNT
#	Creation time:	15. 06. 2019 20:25

#	Modifying user name:	WinNT
#	Modification time:	15. 06. 2019 20:25

#	Program:	/corina/corina34_cracker 3.40 0067  02.08.2006

@<TRIPOS>MOLECULE
ASD02588020
  40   42    0    0    0
SMALL
NO_CHARGES


@<TRIPOS>ATOM
   1 C1            -0.0165     1.3692     0.0096 C.2     
   2 N2             0.0021    -0.0041     0.0020 N.pl3   
   3 N3            -1.2217    -0.6902     0.0100 N.2     
   4 C4            -2.3523    -0.0178     0.0244 C.2     
   5 N5            -2.3789     1.3203     0.0314 N.2     
   6 C6            -1.2674     2.0316     0.0303 C.2     
   7 C7             1.3035     1.8294    -0.0006 C.2     
   8 C8             2.1390     0.6902    -0.0146 C.2     
   9 C9             1.3027    -0.4331    -0.0127 C.2     
  10 N10           -1.3241     3.4120     0.0381 N.pl3   
  11 C11            1.7284     3.1969     0.0027 C.1     
  12 C12            3.5709     0.6852    -0.0288 C.1     
  13 C13           -3.6324    -0.7630     0.0326 C.2     
  14 O14           -4.6876    -0.1587     0.0460 O.2     
  15 C15           -3.6275    -2.1949     0.0249 C.1     
  16 C16            2.0768     4.3180     0.0054 C.1     
  17 C17            4.7449     0.6810    -0.0403 C.1     
  18 C18           -3.6234    -3.3689     0.0185 C.1     
  19 C19            1.7293    -1.7832    -0.0233 C.2     
  20 O20            2.9176    -2.0458    -0.0358 O.2     
  21 O21            0.8181    -2.7790    -0.0195 O.3     
  22 C22            1.3194    -4.1172    -0.0308 C.3     
  23 C23            0.1651    -5.0860    -0.0246 C.ar    
  24 C24           -0.3756    -5.5246    -1.2188 C.ar    
  25 C25           -1.4344    -6.4133    -1.2131 C.ar    
  26 C26           -1.9522    -6.8638    -0.0132 C.ar    
  27 C27           -1.4109    -6.4260     1.1810 C.ar    
  28 C28           -0.3493    -5.5406     1.1753 C.ar    
  29 H29           -2.1834     3.8621     0.0445 H       
  30 H30           -0.5047     3.9312     0.0372 H       
  31 H31            2.3884     5.3207     0.0078 H       
  32 H32            5.7948     0.6773    -0.0507 H       
  33 H33           -3.6198    -4.4189     0.0128 H       
  34 H34            1.9196    -4.2728    -0.9272 H       
  35 H35            1.9364    -4.2814     0.8526 H       
  36 H36            0.0290    -5.1726    -2.1563 H       
  37 H37           -1.8573    -6.7554    -2.1462 H       
  38 H38           -2.7798    -7.5576    -0.0088 H       
  39 H39           -1.8156    -6.7777     2.1185 H       
  40 H40            0.0761    -5.2014     2.1083 H       
@<TRIPOS>BOND
   1    1    2 1
   2    1    7 2
   3    1    6 1
   4    2    3 1
   5    2    9 1
   6    3    4 2
   7    4    5 1
   8    4   13 1
   9    5    6 2
  10    6   10 1
  11    7    8 1
  12    7   11 1
  13    8    9 2
  14    8   12 1
  15    9   19 1
  16   10   29 1
  17   10   30 1
  18   11   16 3
  19   12   17 3
  20   13   14 2
  21   13   15 1
  22   15   18 3
  23   16   31 1
  24   17   32 1
  25   18   33 1
  26   19   20 2
  27   19   21 1
  28   21   22 1
  29   22   23 1
  30   22   34 1
  31   22   35 1
  32   23   24 ar
  33   23   28 ar
  34   24   25 ar
  35   24   36 1
  36   25   26 ar
  37   25   37 1
  38   26   27 ar
  39   26   38 1
  40   27   28 ar
  41   27   39 1
  42   28   40 1

#	End of record

