#	Name: ASD03091789
#	Creating user name:	WinNT
#	Creation time:	15. 06. 2019 20:31

#	Modifying user name:	WinNT
#	Modification time:	15. 06. 2019 20:31

#	Program:	/corina/corina34_cracker 3.40 0067  02.08.2006

@<TRIPOS>MOLECULE
ASD03091789
  33   35    0    0    0
SMALL
NO_CHARGES


@<TRIPOS>ATOM
   1 C1            -0.0109     1.4654    -0.0351 C.3     
   2 C2             0.0630    -0.0613    -0.1065 C.3     
   3 N3             0.7608    -0.5749     1.0791 N.3     
   4 C4             0.0360    -0.2342     2.3099 C.3     
   5 C5            -0.0394     1.2870     2.4553 C.3     
   6 C6             1.3799     1.8602     2.5289 C.3     
   7 N7             2.0584     1.6063     1.2506 N.am    
   8 C8             1.4090     2.0403     0.0063 C.3     
   9 C9             3.2546     0.9861     1.2201 C.2     
  10 O10            3.7520     0.6762     0.1541 O.2     
  11 C11            3.9584     0.6841     2.4752 C.2     
  12 C12            5.0987    -0.0596     2.5910 C.2     
  13 C13           -0.7566     1.8776     1.2376 C.3     
  14 O14            3.5902     1.0992     3.7022 O.3     
  15 C15            4.4657     0.6352     4.6124 C.2     
  16 C16            5.4267    -0.0969     3.9510 C.2     
  17 C17            4.4103     0.8663     6.0246 C.1     
  18 N18            4.3663     1.0495     7.1448 N.1     
  19 H19           -0.5342     1.8471    -0.9118 H       
  20 H20           -0.9458    -0.4725    -0.1408 H       
  21 H21            0.6062    -0.3570    -1.0041 H       
  22 H22            0.9070    -1.5708     1.0095 H       
  23 H23           -0.9726    -0.6449     2.2629 H       
  24 H24            0.5596    -0.6555     3.1681 H       
  25 H25           -0.5833     1.5405     3.3653 H       
  26 H26            1.3316     2.9339     2.7101 H       
  27 H27            1.9285     1.3753     3.3365 H       
  28 H28            1.9766     1.6741    -0.8492 H       
  29 H29            1.3633     3.1290    -0.0217 H       
  30 H30            5.6435    -0.5299     1.7857 H       
  31 H31           -0.7709     2.9648     1.3153 H       
  32 H32           -1.7788     1.5010     1.1990 H       
  33 H33            6.2707    -0.6027     4.3962 H       
@<TRIPOS>BOND
   1    1    2 1
   2    1    8 1
   3    1   13 1
   4    1   19 1
   5    2    3 1
   6    2   20 1
   7    2   21 1
   8    3    4 1
   9    3   22 1
  10    4    5 1
  11    4   23 1
  12    4   24 1
  13    5    6 1
  14    5   13 1
  15    5   25 1
  16    6    7 1
  17    6   26 1
  18    6   27 1
  19    7    8 1
  20    7    9 am
  21    8   28 1
  22    8   29 1
  23    9   10 2
  24    9   11 1
  25   11   12 2
  26   11   14 1
  27   12   16 1
  28   12   30 1
  29   13   31 1
  30   13   32 1
  31   14   15 1
  32   15   16 2
  33   15   17 1
  34   16   33 1
  35   17   18 3

#	End of record

