#	Name: ASD01812711
#	Creating user name:	WinNT
#	Creation time:	15. 06. 2019 19:29

#	Modifying user name:	WinNT
#	Modification time:	15. 06. 2019 19:29

#	Program:	/corina/corina34_cracker 3.40 0067  02.08.2006

@<TRIPOS>MOLECULE
ASD01812711
  54   58    0    0    0
SMALL
NO_CHARGES


@<TRIPOS>ATOM
   1 C1            -0.0175     1.3771     0.0433 C.ar    
   2 C2             0.0005    -0.0033     0.0458 C.ar    
   3 C3             1.2066    -0.6873     0.0176 C.ar    
   4 C4             2.3919     0.0066    -0.0135 C.ar    
   5 C5             2.3926     1.4048    -0.0170 C.ar    
   6 C6             1.1712     2.0915     0.0120 C.ar    
   7 C7             3.8385    -0.4195    -0.0487 C.3     
   8 N8             4.6290     0.8166    -0.0717 N.am    
   9 C9             3.7900     1.8666    -0.0532 C.2     
  10 C10            6.0915     0.8935    -0.1082 C.3     
  11 C11            6.5577     0.9161    -1.5410 C.ar    
  12 C12            6.7079     2.1241    -2.1979 C.ar    
  13 C13            7.1346     2.1505    -3.5102 C.ar    
  14 C14            7.4142     0.9576    -4.1732 C.ar    
  15 C15            7.2613    -0.2563    -3.5069 C.ar    
  16 C16            6.8394    -0.2709    -2.1928 C.ar    
  17 O17            1.1515     3.4479     0.0091 O.3     
  18 O18            4.1360     3.0321    -0.0644 O.2     
  19 C19           -0.1276     4.0779    -0.0868 C.3     
  20 C20            8.1840    -0.0978    -6.3626 C.2     
  21 C21            7.8731     0.9798    -5.5848 C.2     
  22 N22            8.0652     2.0659    -6.3547 N.2     
  23 N23            8.4637     1.6847    -7.5166 N.2     
  24 N24            8.5483     0.4018    -7.5651 N.pl3   
  25 C25            0.0118     5.4953    -0.6795 C.3     
  26 C26           -0.9987     6.3847     0.0658 C.3     
  27 C27           -1.7170     5.4768     1.0854 C.3     
  28 C28           -0.7232     4.3128     1.3236 C.3     
  29 O29           -0.2914     5.4740    -2.0758 O.3     
  30 C30            8.9682    -0.3850    -8.7273 C.3     
  31 H31           -0.9607     1.9028     0.0612 H       
  32 H32           -0.9289    -0.5530     0.0702 H       
  33 H33            1.2141    -1.7673     0.0205 H       
  34 H34            4.0793    -1.0019     0.8406 H       
  35 H35            4.0345    -1.0064    -0.9461 H       
  36 H36            6.4201     1.8027     0.3952 H       
  37 H37            6.5137     0.0252     0.3977 H       
  38 H38            6.4905     3.0482    -1.6831 H       
  39 H39            7.2512     3.0942    -4.0223 H       
  40 H40            7.4765    -1.1839    -4.0164 H       
  41 H41            6.7251    -1.2111    -1.6738 H       
  42 H42           -0.8040     3.4756    -0.6932 H       
  43 H43            8.1503    -1.1382    -6.0747 H       
  44 H44            1.0241     5.8678    -0.5224 H       
  45 H45           -0.4769     7.1889     0.5846 H       
  46 H46           -1.7204     6.8001    -0.6376 H       
  47 H47           -1.9012     6.0171     2.0139 H       
  48 H48           -2.6519     5.1011     0.6695 H       
  49 H49           -1.2468     3.4237     1.6748 H       
  50 H50            0.0552     4.6074     2.0275 H       
  51 H51           -0.2215     6.3369    -2.5066 H       
  52 H52            8.0963    -0.6322    -9.3329 H       
  53 H53            9.6722     0.1953    -9.3238 H       
  54 H54            9.4485    -1.3035    -8.3900 H       
@<TRIPOS>BOND
   1    1    2 ar
   2    1    6 ar
   3    1   31 1
   4    2    3 ar
   5    2   32 1
   6    3    4 ar
   7    3   33 1
   8    4    7 1
   9    4    5 ar
  10    5    6 ar
  11    5    9 1
  12    6   17 1
  13    7    8 1
  14    7   34 1
  15    7   35 1
  16    8    9 am
  17    8   10 1
  18    9   18 2
  19   10   11 1
  20   10   36 1
  21   10   37 1
  22   11   12 ar
  23   11   16 ar
  24   12   13 ar
  25   12   38 1
  26   13   14 ar
  27   13   39 1
  28   14   15 ar
  29   14   21 1
  30   15   16 ar
  31   15   40 1
  32   16   41 1
  33   17   19 1
  34   19   25 1
  35   19   28 1
  36   19   42 1
  37   20   21 2
  38   20   24 1
  39   20   43 1
  40   21   22 1
  41   22   23 2
  42   23   24 1
  43   24   30 1
  44   25   26 1
  45   25   29 1
  46   25   44 1
  47   26   27 1
  48   26   45 1
  49   26   46 1
  50   27   28 1
  51   27   47 1
  52   27   48 1
  53   28   49 1
  54   28   50 1
  55   29   51 1
  56   30   52 1
  57   30   53 1
  58   30   54 1

#	End of record

