#	Name: ASD01190134
#	Creating user name:	WinNT
#	Creation time:	15. 06. 2019 19:07

#	Modifying user name:	WinNT
#	Modification time:	15. 06. 2019 19:07

#	Program:	/corina/corina34_cracker 3.40 0067  02.08.2006

@<TRIPOS>MOLECULE
ASD01190134
  56   60    0    0    0
SMALL
NO_CHARGES


@<TRIPOS>ATOM
   1 C1            -0.9626    -1.2419     0.1482 C.2     
   2 C2             0.1888    -0.4426     0.7018 C.3     
   3 O3            -0.8796    -1.7415    -0.9538 O.2     
   4 N4            -2.0824    -1.4063     0.8800 N.am    
   5 C5             0.6176     1.5421    -1.7890 C.2     
   6 C6             1.3974     0.4681    -1.3216 C.2     
   7 C7             2.5775     0.1449    -2.0035 C.2     
   8 C8             2.9503     0.9376    -3.1733 C.2     
   9 C9             2.1485     1.9497    -3.5554 C.2     
  10 N10            1.0039     2.2418    -2.8713 N.am    
  11 N11            1.2803    -0.4176    -0.2750 N.pl3   
  12 C12            3.1506    -0.9537    -1.3300 C.2     
  13 C13            2.3449    -1.2668    -0.2951 C.2     
  14 C14            4.4330    -1.6528    -1.7010 C.3     
  15 C15            4.6984    -2.7899    -0.7123 C.3     
  16 O16            4.3197    -2.1867    -3.0217 O.3     
  17 N17            8.7575     1.9394    -1.7664 N.pl3   
  18 N18            9.2584     1.6508    -3.0401 N.2     
  19 C19            8.5344     0.7279    -3.6074 C.2     
  20 C20            7.4739     0.3567    -2.6760 C.ar    
  21 C21            6.4149    -0.5569    -2.7219 C.ar    
  22 C22            5.5735    -0.6690    -1.6531 C.ar    
  23 C23            5.7584     0.1158    -0.5213 C.ar    
  24 C24            6.7847     1.0150    -0.4532 C.ar    
  25 C25            7.6593     1.1511    -1.5279 C.ar    
  26 C26            9.2939     2.8777    -0.8751 C.ar    
  27 C27           10.6671     3.0763    -0.8177 C.ar    
  28 C28           11.1938     4.0018     0.0617 C.ar    
  29 C29           10.3536     4.7315     0.8859 C.ar    
  30 C30            8.9838     4.5350     0.8302 C.ar    
  31 C31            8.4527     3.6147    -0.0518 C.ar    
  32 F32           10.8709     5.6361     1.7457 F       
  33 F33            3.6396    -3.7032    -0.7568 F       
  34 F34            5.8890    -3.4389    -1.0567 F       
  35 F35            4.8094    -2.2672     0.5807 F       
  36 O36           -0.4168     1.8372    -1.2127 O.2     
  37 C37            0.1681     3.3536    -3.3312 C.3     
  38 H38           -0.1407     0.5764     0.9047 H       
  39 H39            0.5389    -0.9021     1.6262 H       
  40 H40           -2.1472    -1.0101     1.7630 H       
  41 H41           -2.8235    -1.9208     0.5237 H       
  42 H42            3.8538     0.7157    -3.7218 H       
  43 H43            2.4160     2.5413    -4.4185 H       
  44 H44            2.5171    -2.0674     0.4090 H       
  45 H45            4.1507    -1.5206    -3.7020 H       
  46 H46            8.6910     0.3120    -4.5917 H       
  47 H47            6.2641    -1.1698    -3.5982 H       
  48 H48            5.0822     0.0139     0.3146 H       
  49 H49            6.9171     1.6191     0.4321 H       
  50 H50           11.3227     2.5071    -1.4600 H       
  51 H51           12.2617     4.1562     0.1069 H       
  52 H52            8.3303     5.1049     1.4740 H       
  53 H53            7.3841     3.4652    -0.0984 H       
  54 H54            0.4859     4.2739    -2.8412 H       
  55 H55            0.2705     3.4628    -4.4109 H       
  56 H56           -0.8740     3.1513    -3.0838 H       
@<TRIPOS>BOND
   1    1    2 1
   2    1    3 2
   3    1    4 am
   4    2   11 1
   5    2   38 1
   6    2   39 1
   7    4   40 1
   8    4   41 1
   9    5    6 1
  10    5   10 am
  11    5   36 2
  12    6    7 2
  13    6   11 1
  14    7    8 1
  15    7   12 1
  16    8    9 2
  17    8   42 1
  18    9   10 1
  19    9   43 1
  20   10   37 1
  21   11   13 1
  22   12   13 2
  23   12   14 1
  24   13   44 1
  25   14   15 1
  26   14   16 1
  27   14   22 1
  28   15   33 1
  29   15   34 1
  30   15   35 1
  31   16   45 1
  32   17   18 1
  33   17   25 1
  34   17   26 1
  35   18   19 2
  36   19   20 1
  37   19   46 1
  38   20   21 ar
  39   20   25 ar
  40   21   22 ar
  41   21   47 1
  42   22   23 ar
  43   23   24 ar
  44   23   48 1
  45   24   25 ar
  46   24   49 1
  47   26   27 ar
  48   26   31 ar
  49   27   28 ar
  50   27   50 1
  51   28   29 ar
  52   28   51 1
  53   29   30 ar
  54   29   32 1
  55   30   31 ar
  56   30   52 1
  57   31   53 1
  58   37   54 1
  59   37   55 1
  60   37   56 1

#	End of record

