#	Name: ASD04882122
#	Creating user name:	WinNT
#	Creation time:	15. 06. 2019 20:54

#	Modifying user name:	WinNT
#	Modification time:	15. 06. 2019 20:54

#	Program:	/corina/corina34_cracker 3.40 0067  02.08.2006

@<TRIPOS>MOLECULE
ASD04882122
  75   79    0    0    0
SMALL
NO_CHARGES


@<TRIPOS>ATOM
   1 O1            -0.4051     1.5673    -1.2569 O.3     
   2 C2            -0.2787     0.3391    -0.7131 C.2     
   3 C3            -1.3749    -0.5876    -0.4137 C.2     
   4 O4            -1.1355    -1.6745     0.0790 O.2     
   5 N5            -2.6476    -0.2358    -0.6840 N.am    
   6 C6            -3.6839    -1.1603    -0.5004 C.ar    
   7 C7            -4.9489    -0.7224    -0.0970 C.ar    
   8 C8            -5.9780    -1.6385     0.0851 C.ar    
   9 C9            -5.7559    -2.9807    -0.1311 C.ar    
  10 C10           -4.4939    -3.4253    -0.5340 C.ar    
  11 C11           -3.4584    -2.5052    -0.7234 C.ar    
  12 N12           -5.1778     0.6334     0.1232 N.3     
  13 C13           -4.4108     1.1160     1.2801 C.3     
  14 C14           -4.6271     2.6227     1.4397 C.3     
  15 N15           -6.0612     2.8934     1.6122 N.3     
  16 C16           -6.8282     2.4109     0.4553 C.3     
  17 C17           -6.6118     0.9042     0.2957 C.3     
  18 C18           -6.2908     4.2534     1.8330 C.ar    
  19 C19           -5.8409     4.8546     3.0019 C.ar    
  20 C20           -6.7452     6.9476     2.2702 C.ar    
  21 C21           -6.9643     5.0089     0.8819 C.ar    
  22 C22           -6.0692     6.1994     3.2168 C.ar    
  23 C23           -7.1892     6.3537     1.1032 C.ar    
  24 C24           -5.1051     4.0399     4.0344 C.3     
  25 C25           -4.2560    -4.8629    -0.7645 C.2     
  26 N26           -5.2563    -5.7485    -0.5865 N.am    
  27 O27           -3.1575    -5.2488    -1.1150 O.2     
  28 C28           -5.0200    -7.1761    -0.8154 C.3     
  29 C29           -6.3082    -7.9560    -0.5449 C.3     
  30 C30           -6.0615    -9.4469    -0.7840 C.3     
  31 N31           -7.2984   -10.1957    -0.5243 N.3     
  32 C32           -7.1718   -11.5957    -0.9692 C.3     
  33 C33           -7.4636   -12.4918     0.2528 C.3     
  34 C34           -8.2938   -11.5628     1.1772 C.3     
  35 C35           -7.6301   -10.1877     0.9164 C.3     
  36 C36            1.0490     0.1101    -0.4908 C.2     
  37 C37            1.7342     1.2560    -0.9238 C.2     
  38 C38            0.8066     2.1234    -1.3855 C.2     
  39 H39           -2.8459     0.6576    -1.0056 H       
  40 H40           -6.9541    -1.2973     0.3971 H       
  41 H41           -6.5577    -3.6901     0.0112 H       
  42 H42           -2.4832    -2.8453    -1.0393 H       
  43 H43           -4.7488     0.6026     2.1803 H       
  44 H44           -3.3509     0.9154     1.1230 H       
  45 H45           -4.0822     2.9776     2.3144 H       
  46 H46           -4.2640     3.1384     0.5507 H       
  47 H47           -7.8880     2.6115     0.6123 H       
  48 H48           -6.4901     2.9242    -0.4449 H       
  49 H49           -7.1567     0.5492    -0.5791 H       
  50 H50           -6.9749     0.3885     1.1847 H       
  51 H51           -6.9227     7.9991     2.4409 H       
  52 H52           -7.3114     4.5456    -0.0298 H       
  53 H53           -5.7198     6.6673     4.1253 H       
  54 H54           -7.7168     6.9408     0.3661 H       
  55 H55           -4.0314     4.1285     3.8693 H       
  56 H56           -5.3512     4.4079     5.0304 H       
  57 H57           -5.4007     2.9941     3.9501 H       
  58 H58           -6.1326    -5.4406    -0.3068 H       
  59 H59           -4.7110    -7.3321    -1.8489 H       
  60 H60           -4.2355    -7.5266    -0.1447 H       
  61 H61           -6.6173    -7.8000     0.4886 H       
  62 H62           -7.0928    -7.6054    -1.2156 H       
  63 H63           -5.7525    -9.6029    -1.8176 H       
  64 H64           -5.2770    -9.7974    -0.1133 H       
  65 H65           -7.8936   -11.8003    -1.7598 H       
  66 H66           -6.1601   -11.7798    -1.3309 H       
  67 H67           -8.0465   -13.3650    -0.0400 H       
  68 H68           -6.5363   -12.7922     0.7407 H       
  69 H69           -9.3426   -11.5528     0.8804 H       
  70 H70           -8.1880   -11.8556     2.2218 H       
  71 H71           -6.7243   -10.0841     1.5138 H       
  72 H72           -8.3279    -9.3809     1.1406 H       
  73 H73            1.4870    -0.7802    -0.0642 H       
  74 H74            2.8021     1.4149    -0.8933 H       
  75 H75            1.0089     3.1034    -1.7917 H       
@<TRIPOS>BOND
   1    1    2 1
   2    1   38 1
   3    2    3 1
   4    2   36 2
   5    3    4 2
   6    3    5 am
   7    5    6 1
   8    5   39 1
   9    6    7 ar
  10    6   11 ar
  11    7    8 ar
  12    7   12 1
  13    8    9 ar
  14    8   40 1
  15    9   10 ar
  16    9   41 1
  17   10   11 ar
  18   10   25 1
  19   11   42 1
  20   12   13 1
  21   12   17 1
  22   13   14 1
  23   13   43 1
  24   13   44 1
  25   14   15 1
  26   14   45 1
  27   14   46 1
  28   15   16 1
  29   15   18 1
  30   16   17 1
  31   16   47 1
  32   16   48 1
  33   17   49 1
  34   17   50 1
  35   18   19 ar
  36   18   21 ar
  37   19   22 ar
  38   19   24 1
  39   20   22 ar
  40   20   23 ar
  41   20   51 1
  42   21   23 ar
  43   21   52 1
  44   22   53 1
  45   23   54 1
  46   24   55 1
  47   24   56 1
  48   24   57 1
  49   25   26 am
  50   25   27 2
  51   26   28 1
  52   26   58 1
  53   28   29 1
  54   28   59 1
  55   28   60 1
  56   29   30 1
  57   29   61 1
  58   29   62 1
  59   30   31 1
  60   30   63 1
  61   30   64 1
  62   31   32 1
  63   31   35 1
  64   32   33 1
  65   32   65 1
  66   32   66 1
  67   33   34 1
  68   33   67 1
  69   33   68 1
  70   34   35 1
  71   34   69 1
  72   34   70 1
  73   35   71 1
  74   35   72 1
  75   36   37 1
  76   36   73 1
  77   37   38 2
  78   37   74 1
  79   38   75 1

#	End of record

