#	Name: ASD01410708
#	Creating user name:	WinNT
#	Creation time:	15. 06. 2019 19:18

#	Modifying user name:	WinNT
#	Modification time:	15. 06. 2019 19:18

#	Program:	/corina/corina34_cracker 3.40 0067  02.08.2006

@<TRIPOS>MOLECULE
ASD01410708
  86   91    0    0    0
SMALL
NO_CHARGES


@<TRIPOS>ATOM
   1 N1            -0.0207     1.6778     0.0113 N.am    
   2 C2            -2.6516     4.3886    -0.5148 C.3     
   3 N3            -4.3468     5.3287    -5.0570 N.am    
   4 S4             0.0021    -0.0041     0.0020 S.o2    
   5 O5            -1.3440    -0.4384     0.1159 O.2     
   6 N6             0.5212    -0.3908    -1.5448 N.am    
   7 O7             1.0349    -0.4008     0.8937 O.2     
   8 C8            -0.3263    -0.0479    -2.5299 C.2     
   9 O9            -1.4898     0.1314    -2.2192 O.2     
  10 C10            0.0033     0.2177    -3.9177 C.ar    
  11 C11            1.2109    -0.0815    -4.5361 C.ar    
  12 C12            1.4929     0.3261    -5.8186 C.ar    
  13 C13            0.5081     1.0709    -6.4888 C.ar    
  14 C14           -0.7770     1.2663    -5.9210 C.ar    
  15 C15           -1.0487     0.8427    -4.6376 C.ar    
  16 C16            0.5145     1.7857    -7.7007 C.2     
  17 C17           -0.7069     2.3483    -7.8783 C.2     
  18 N18           -1.5330     1.9455    -6.8363 N.pl3   
  19 C19            1.7201     1.8912    -8.6022 C.3     
  20 C20            2.8718     2.5482    -7.8388 C.3     
  21 C21            2.1415     0.4922    -9.0561 C.3     
  22 C22            3.3639     0.5992    -9.9701 C.3     
  23 C23            4.5156     1.2562    -9.2066 C.3     
  24 C24            4.0941     2.6552    -8.7527 C.3     
  25 C25           -1.1409     3.2797    -8.9363 C.ar    
  26 C26           -2.0387     4.3255    -8.7062 C.ar    
  27 C27           -2.7446     4.5704    -7.4555 C.2     
  28 C28           -3.1815     3.7127    -6.5648 C.2     
  29 C29           -2.9673     2.2259    -6.7564 C.3     
  30 C30           -3.8892     4.0944    -5.3559 C.2     
  31 O31           -4.1354     3.1885    -4.5496 O.2     
  32 C32           -0.6546     3.0713   -10.2341 C.ar    
  33 C33           -0.9678     3.9359   -11.2563 C.ar    
  34 C34           -1.8026     5.0209   -11.0168 C.ar    
  35 C35           -2.3355     5.2154    -9.7606 C.ar    
  36 O36           -2.0965     5.8862   -12.0224 O.3     
  37 C37           -2.6911     5.4457    -1.6195 C.3     
  38 C38           -1.2576     3.7569    -0.4505 C.3     
  39 C39           -1.3633     2.3113     0.0337 C.3     
  40 C40            1.2251     2.4507     0.0035 C.3     
  41 C41           -5.0641     6.1933    -6.0012 C.3     
  42 C42           -1.5129     5.6193   -13.2992 C.3     
  43 C43           -3.2006     4.8129    -2.9247 C.3     
  44 C44           -4.0820     5.8071    -3.6757 C.3     
  45 H45           -2.8833     4.8571     0.4428 H       
  46 H46           -3.3850     3.6114    -0.7231 H       
  47 H47            1.3708    -0.8274    -1.7105 H       
  48 H48            1.9511    -0.6581    -3.9994 H       
  49 H49            2.4392     0.0886    -6.2842 H       
  50 H50           -2.0257     0.9787    -4.1994 H       
  51 H51            1.4702     2.4961    -9.4739 H       
  52 H52            2.5716     3.5449    -7.5154 H       
  53 H53            3.1217     1.9434    -6.9671 H       
  54 H54            2.3915    -0.1127    -8.1845 H       
  55 H55            1.3211     0.0242    -9.6000 H       
  56 H56            3.6641    -0.3975   -10.2935 H       
  57 H57            3.1140     1.2041   -10.8417 H       
  58 H58            4.7655     0.6514    -8.3350 H       
  59 H59            5.3864     1.3325    -9.8578 H       
  60 H60            3.8442     3.2601    -9.6244 H       
  61 H61            4.9146     3.1233    -8.2088 H       
  62 H62           -2.8861     5.6122    -7.2302 H       
  63 H63           -3.4425     1.9297    -7.6903 H       
  64 H64           -3.4092     1.6870    -5.9275 H       
  65 H65           -0.0471     2.2072   -10.4588 H       
  66 H66           -0.5642     3.7681   -12.2436 H       
  67 H67           -2.9824     6.0612    -9.5800 H       
  68 H68           -3.3558     6.2571    -1.3215 H       
  69 H69           -1.6888     5.8394    -1.7844 H       
  70 H70           -0.8123     3.7844    -1.4438 H       
  71 H71           -0.6500     4.3381     0.2442 H       
  72 H72           -2.0421     1.7587    -0.6206 H       
  73 H73           -1.7594     2.2943     1.0516 H       
  74 H74            2.0756     1.7690    -0.0083 H       
  75 H75            1.2545     3.0837    -0.8834 H       
  76 H76            1.2715     3.0741     0.8965 H       
  77 H77           -5.1618     5.6828    -6.9593 H       
  78 H78           -6.0550     6.4186    -5.6069 H       
  79 H79           -4.5083     7.1208    -6.1388 H       
  80 H80           -1.8278     6.3837   -14.0096 H       
  81 H81           -0.4264     5.6304   -13.2115 H       
  82 H82           -1.8391     4.6404   -13.6504 H       
  83 H83           -2.3478     4.5323    -3.5410 H       
  84 H84           -3.7807     3.9232    -2.6715 H       
  85 H85           -3.5803     6.7764    -3.7276 H       
  86 H86           -5.0323     5.9262    -3.1525 H       
@<TRIPOS>BOND
   1    1    4 am
   2    1   40 1
   3    1   39 1
   4    2   37 1
   5    2   38 1
   6    2   45 1
   7    2   46 1
   8    3   30 am
   9    3   41 1
  10    3   44 1
  11    4    5 2
  12    4    6 am
  13    4    7 2
  14    6    8 am
  15    6   47 1
  16    8    9 2
  17    8   10 1
  18   10   11 ar
  19   10   15 ar
  20   11   12 ar
  21   11   48 1
  22   12   13 ar
  23   12   49 1
  24   13   14 ar
  25   13   16 1
  26   14   15 ar
  27   14   18 1
  28   15   50 1
  29   16   17 2
  30   16   19 1
  31   17   18 1
  32   17   25 1
  33   18   29 1
  34   19   20 1
  35   19   21 1
  36   19   51 1
  37   20   24 1
  38   20   52 1
  39   20   53 1
  40   21   22 1
  41   21   54 1
  42   21   55 1
  43   22   23 1
  44   22   56 1
  45   22   57 1
  46   23   24 1
  47   23   58 1
  48   23   59 1
  49   24   60 1
  50   24   61 1
  51   25   26 ar
  52   25   32 ar
  53   26   27 1
  54   26   35 ar
  55   27   28 2
  56   27   62 1
  57   28   29 1
  58   28   30 1
  59   29   63 1
  60   29   64 1
  61   30   31 2
  62   32   33 ar
  63   32   65 1
  64   33   34 ar
  65   33   66 1
  66   34   35 ar
  67   34   36 1
  68   35   67 1
  69   36   42 1
  70   37   43 1
  71   37   68 1
  72   37   69 1
  73   38   39 1
  74   38   70 1
  75   38   71 1
  76   39   72 1
  77   39   73 1
  78   40   74 1
  79   40   75 1
  80   40   76 1
  81   41   77 1
  82   41   78 1
  83   41   79 1
  84   42   80 1
  85   42   81 1
  86   42   82 1
  87   43   44 1
  88   43   83 1
  89   43   84 1
  90   44   85 1
  91   44   86 1

#	End of record

