#	Name: ASD01816531
#	Creating user name:	WinNT
#	Creation time:	15. 06. 2019 19:35

#	Modifying user name:	WinNT
#	Modification time:	15. 06. 2019 19:35

#	Program:	/corina/corina34_cracker 3.40 0067  02.08.2006

@<TRIPOS>MOLECULE
ASD01816531
  50   55    0    0    0
SMALL
NO_CHARGES


@<TRIPOS>ATOM
   1 C1            -0.0167     1.3813     0.0096 C.ar    
   2 C2             0.0021    -0.0041     0.0020 C.ar    
   3 C3             1.1984    -0.6909    -0.0126 C.ar    
   4 C4             2.4015     0.0059    -0.0203 C.ar    
   5 C5             2.3790     1.4106    -0.0130 C.ar    
   6 C6             1.1663     2.0916     0.0022 C.ar    
   7 N7             3.6053    -0.6771    -0.0345 N.pl3   
   8 C8             4.7970    -0.0585    -0.0420 C.2     
   9 C9             4.9000     1.3103    -0.0365 C.2     
  10 C10            3.6670     2.1302    -0.0215 C.2     
  11 C11            5.9971     2.2730    -0.0417 C.2     
  12 N12            5.4245     3.4961    -0.0309 N.am    
  13 N13            4.0322     3.3799    -0.0189 N.2     
  14 C14            6.1244     4.7049    -0.0314 C.ar    
  15 O15            7.1913     2.0231    -0.0529 O.2     
  16 C16            3.5779    -2.1419    -0.0411 C.3     
  17 C17            3.5555    -2.6375    -1.4641 C.ar    
  18 C18            4.7434    -2.8867    -2.1267 C.ar    
  19 C19            4.7261    -3.3406    -3.4311 C.ar    
  20 C20            3.5145    -3.5469    -4.0768 C.ar    
  21 C21            2.3235    -3.2962    -3.4088 C.ar    
  22 C22            2.3471    -2.8474    -2.1027 C.ar    
  23 N23            3.4937    -4.0070    -5.4008 N.pl3   
  24 C24            2.3888    -4.2482    -6.1423 C.2     
  25 C25            2.7955    -4.6776    -7.3594 C.2     
  26 C26            4.1946    -4.7000    -7.3630 C.2     
  27 N27            4.6138    -4.2926    -6.1921 N.2     
  28 C28            6.5624     5.2769    -1.2243 C.ar    
  29 C29            7.2507     6.4722    -1.1820 C.ar    
  30 N30            7.4955     7.0720    -0.0326 N.ar    
  31 C31            7.0978     6.5631     1.1185 C.ar    
  32 C32            6.3981     5.3740     1.1620 C.ar    
  33 Cl33           5.8789     4.7131     2.6810 Cl      
  34 H34           -0.9602     1.9068     0.0169 H       
  35 H35           -0.9289    -0.5516     0.0079 H       
  36 H36            1.2004    -1.7709    -0.0177 H       
  37 H37            1.1506     3.1715     0.0081 H       
  38 H38            5.6983    -0.6535    -0.0523 H       
  39 H39            4.4656    -2.5242     0.4629 H       
  40 H40            2.6860    -2.4909     0.4793 H       
  41 H41            5.6856    -2.7260    -1.6238 H       
  42 H42            5.6542    -3.5344    -3.9483 H       
  43 H43            1.3795    -3.4554    -3.9086 H       
  44 H44            1.4210    -2.6522    -1.5825 H       
  45 H45            1.3657    -4.1215    -5.8206 H       
  46 H46            2.1536    -4.9543    -8.1826 H       
  47 H47            4.8207    -4.9977    -8.1911 H       
  48 H48            6.3661     4.7913    -2.1688 H       
  49 H49            7.5937     6.9225    -2.1018 H       
  50 H50            7.3187     7.0859     2.0374 H       
@<TRIPOS>BOND
   1    1    2 ar
   2    1    6 ar
   3    1   34 1
   4    2    3 ar
   5    2   35 1
   6    3    4 ar
   7    3   36 1
   8    4    5 ar
   9    4    7 1
  10    5    6 ar
  11    5   10 1
  12    6   37 1
  13    7    8 1
  14    7   16 1
  15    8    9 2
  16    8   38 1
  17    9   10 1
  18    9   11 1
  19   10   13 2
  20   11   12 am
  21   11   15 2
  22   12   13 1
  23   12   14 1
  24   14   28 ar
  25   14   32 ar
  26   16   17 1
  27   16   39 1
  28   16   40 1
  29   17   18 ar
  30   17   22 ar
  31   18   19 ar
  32   18   41 1
  33   19   20 ar
  34   19   42 1
  35   20   21 ar
  36   20   23 1
  37   21   22 ar
  38   21   43 1
  39   22   44 1
  40   23   24 1
  41   23   27 1
  42   24   25 2
  43   24   45 1
  44   25   26 1
  45   25   46 1
  46   26   27 2
  47   26   47 1
  48   28   29 ar
  49   28   48 1
  50   29   30 ar
  51   29   49 1
  52   30   31 ar
  53   31   32 ar
  54   31   50 1
  55   32   33 1

#	End of record

