#	Name: ASD01900762
#	Creating user name:	WinNT
#	Creation time:	15. 06. 2019 19:52

#	Modifying user name:	WinNT
#	Modification time:	15. 06. 2019 19:52

#	Program:	/corina/corina34_cracker 3.40 0067  02.08.2006

@<TRIPOS>MOLECULE
ASD01900762
  55   59    0    0    0
SMALL
NO_CHARGES


@<TRIPOS>ATOM
   1 C1            -0.0184     1.4085     0.1341 C.ar    
   2 C2            -0.0083     0.0181     0.1231 C.ar    
   3 C3             1.1888    -0.6775     0.0635 C.ar    
   4 C4             2.3901     0.0141     0.0140 C.ar    
   5 C5             2.3727     1.4163     0.0298 C.ar    
   6 O6             3.5626    -0.6520    -0.0560 O.3     
   7 C7             4.7366    -0.0447     0.1910 C.2     
   8 C8             4.8720     1.3052     0.2216 C.2     
   9 C9             3.6734     2.1305    -0.0105 C.2     
  10 C10            5.9242    -0.8788     0.4389 C.2     
  11 N11            7.1221    -0.2963     0.6909 N.2     
  12 C12            8.1936    -0.9950     0.9146 C.2     
  13 N13            8.1695    -2.3626     0.9072 N.pl3   
  14 C14            6.9779    -3.0202     0.6565 C.2     
  15 C15            5.8177    -2.2594     0.4206 C.2     
  16 C16            1.1693     2.1086     0.0876 C.ar    
  17 C17            9.1371    -3.2996     1.1088 C.2     
  18 C18            8.5885    -4.5335     0.9920 C.2     
  19 C19            7.2286    -4.3786     0.7072 C.2     
  20 O20           -1.1817    -0.6642     0.1717 O.3     
  21 C21           -2.3808     0.1109     0.2324 C.3     
  22 C22           -3.5907    -0.8244     0.2807 C.3     
  23 C23           -4.8745     0.0054     0.3457 C.3     
  24 N24           -6.0361    -0.8925     0.3921 N.3     
  25 C25           -7.2669    -0.1467     0.6927 C.3     
  26 C26           -5.8292    -1.9716     1.3689 C.3     
  27 C27           -7.0346    -2.9151     1.3418 C.3     
  28 O28           -8.2250    -2.1674     1.6051 O.3     
  29 C29           -8.4578    -1.1085     0.6724 C.3     
  30 N30            3.7514     3.4202    -0.2398 N.2     
  31 O31            2.5912     4.1461    -0.6033 O.3     
  32 H32           -0.9572     1.9409     0.1747 H       
  33 H33            1.1864    -1.7575     0.0560 H       
  34 H34            5.8322     1.7622     0.4107 H       
  35 H35            9.1250    -0.4847     1.1106 H       
  36 H36            4.8709    -2.7396     0.2220 H       
  37 H37            1.1639     3.1885     0.0964 H       
  38 H38           10.1746    -3.0927     1.3260 H       
  39 H39            9.1110    -5.4726     1.0997 H       
  40 H40            6.5099    -5.1705     0.5559 H       
  41 H41           -2.3664     0.7329     1.1274 H       
  42 H42           -2.4478     0.7463    -0.6506 H       
  43 H43           -3.6051    -1.4464    -0.6143 H       
  44 H44           -3.5237    -1.4599     1.1637 H       
  45 H45           -4.8601     0.6274     1.2407 H       
  46 H46           -4.9415     0.6409    -0.5373 H       
  47 H47           -7.1842     0.3095     1.6791 H       
  48 H48           -7.4138     0.6305    -0.0573 H       
  49 H49           -4.9268    -2.5266     1.1124 H       
  50 H50           -5.7236    -1.5445     2.3661 H       
  51 H51           -7.1085    -3.3832     0.3602 H       
  52 H52           -6.9119    -3.6844     2.1042 H       
  53 H53           -9.3644    -0.5712     0.9507 H       
  54 H54           -8.5731    -1.5241    -0.3287 H       
  55 H55            2.7474     5.0888    -0.7515 H       
@<TRIPOS>BOND
   1    1    2 ar
   2    1   16 ar
   3    1   32 1
   4    2    3 ar
   5    2   20 1
   6    3    4 ar
   7    3   33 1
   8    4    5 ar
   9    4    6 1
  10    5   16 ar
  11    5    9 1
  12    6    7 1
  13    7    8 2
  14    7   10 1
  15    8    9 1
  16    8   34 1
  17    9   30 2
  18   10   11 1
  19   10   15 2
  20   11   12 2
  21   12   13 1
  22   12   35 1
  23   13   14 1
  24   13   17 1
  25   14   15 1
  26   14   19 2
  27   15   36 1
  28   16   37 1
  29   17   18 2
  30   17   38 1
  31   18   19 1
  32   18   39 1
  33   19   40 1
  34   20   21 1
  35   21   22 1
  36   21   41 1
  37   21   42 1
  38   22   23 1
  39   22   43 1
  40   22   44 1
  41   23   24 1
  42   23   45 1
  43   23   46 1
  44   24   25 1
  45   24   26 1
  46   25   29 1
  47   25   47 1
  48   25   48 1
  49   26   27 1
  50   26   49 1
  51   26   50 1
  52   27   28 1
  53   27   51 1
  54   27   52 1
  55   28   29 1
  56   29   53 1
  57   29   54 1
  58   30   31 1
  59   31   55 1

#	End of record

