#	Name: ASD03092889
#	Creating user name:	WinNT
#	Creation time:	15. 06. 2019 20:33

#	Modifying user name:	WinNT
#	Modification time:	15. 06. 2019 20:33

#	Program:	/corina/corina34_cracker 3.40 0067  02.08.2006

@<TRIPOS>MOLECULE
ASD03092889
  40   43    0    0    0
SMALL
NO_CHARGES


@<TRIPOS>ATOM
   1 F1             0.0021    -0.0041     0.0020 F       
   2 C2            -0.0162     1.3468     0.0094 C.ar    
   3 C3            -1.2323     2.0195     0.0304 C.ar    
   4 C4            -1.2689     3.3849     0.0378 C.ar    
   5 C5            -0.0763     4.1119     0.0245 C.ar    
   6 C6             0.2369     5.5435     0.0281 C.2     
   7 N7             1.5293     5.6586     0.0108 N.2     
   8 O8             2.1229     4.3758    -0.0045 O.3     
   9 C9             1.1557     3.4364     0.0038 C.ar    
  10 C10            1.1734     2.0478     0.0019 C.ar    
  11 C11           -0.7590     6.6743     0.0476 C.3     
  12 C12           -0.5337     7.5331     1.2952 C.3     
  13 C13           -1.5072     8.7138     1.2784 C.3     
  14 N14           -1.2885     9.5130     0.0661 N.3     
  15 C15           -1.5450     8.7224    -1.1446 C.3     
  16 C16           -0.5726     7.5420    -1.2001 C.3     
  17 C17           -2.0628    10.6617     0.0823 C.ar    
  18 C18           -2.0136    11.5653    -0.9810 C.ar    
  19 C19           -2.8046    12.6958    -0.9177 C.ar    
  20 N20           -3.5785    12.8849     0.1416 N.ar    
  21 C21           -3.6025    12.0129     1.1294 C.ar    
  22 N22           -2.8690    10.9186     1.1083 N.ar    
  23 C23           -2.7876    13.7022    -2.0392 C.3     
  24 F24           -3.7606    13.3627    -2.9853 F       
  25 F25           -3.0592    14.9756    -1.5272 F       
  26 F26           -1.5271    13.7028    -2.6462 F       
  27 H27           -2.1551     1.4585     0.0407 H       
  28 H28           -2.2175     3.9011     0.0534 H       
  29 H29            2.1145     1.5179    -0.0096 H       
  30 H30           -1.7706     6.2686     0.0614 H       
  31 H31           -0.7069     6.9313     2.1873 H       
  32 H32            0.4905     7.9059     1.3002 H       
  33 H33           -2.5312     8.3403     1.2874 H       
  34 H34           -1.3397     9.3351     2.1582 H       
  35 H35           -2.5688     8.3490    -1.1243 H       
  36 H36           -1.4049     9.3501    -2.0246 H       
  37 H37            0.4510     7.9150    -1.2344 H       
  38 H38           -0.7736     6.9466    -2.0908 H       
  39 H39           -1.3729    11.3850    -1.8315 H       
  40 H40           -4.2447    12.1981     1.9778 H       
@<TRIPOS>BOND
   1    1    2 1
   2    2   10 ar
   3    2    3 ar
   4    3    4 ar
   5    3   27 1
   6    4    5 ar
   7    4   28 1
   8    5    9 ar
   9    5    6 1
  10    6    7 2
  11    6   11 1
  12    7    8 1
  13    8    9 1
  14    9   10 ar
  15   10   29 1
  16   11   16 1
  17   11   12 1
  18   11   30 1
  19   12   13 1
  20   12   31 1
  21   12   32 1
  22   13   14 1
  23   13   33 1
  24   13   34 1
  25   14   15 1
  26   14   17 1
  27   15   16 1
  28   15   35 1
  29   15   36 1
  30   16   37 1
  31   16   38 1
  32   17   22 ar
  33   17   18 ar
  34   18   19 ar
  35   18   39 1
  36   19   20 ar
  37   19   23 1
  38   20   21 ar
  39   21   22 ar
  40   21   40 1
  41   23   24 1
  42   23   25 1
  43   23   26 1

#	End of record

