#	Name: ASD03731654
#	Creating user name:	WinNT
#	Creation time:	15. 06. 2019 20:46

#	Modifying user name:	WinNT
#	Modification time:	15. 06. 2019 20:46

#	Program:	/corina/corina34_cracker 3.40 0067  02.08.2006

@<TRIPOS>MOLECULE
ASD03731654
  36   37    0    0    0
SMALL
NO_CHARGES


@<TRIPOS>ATOM
   1 C1            -0.1367     1.4672     0.0334 C.2     
   2 C2            -0.0854    -0.0063     0.0192 C.ar    
   3 C3             1.1398    -0.6647    -0.1384 C.ar    
   4 C4             1.1826    -2.0444    -0.1511 C.ar    
   5 C5             0.0128    -2.7784    -0.0083 C.ar    
   6 C6            -1.2081    -2.1273     0.1487 C.ar    
   7 C7            -1.2598    -0.7504     0.1688 C.ar    
   8 O8             0.8864     2.1124    -0.0920 O.2     
   9 N9            -1.3182     2.0990     0.1796 N.am    
  10 S10           -1.3758     3.7539     0.1956 S.o2    
  11 O11           -2.7510     4.0548     0.3894 O.2     
  12 O12           -0.4009     4.1292     1.1588 O.2     
  13 C13           -0.8461     4.2413    -1.4695 C.3     
  14 O14            0.0593    -4.1350    -0.0222 O.3     
  15 C15           -0.1519    -4.7684    -1.2056 C.ar    
  16 C16           -0.0459    -6.1501    -1.2829 C.ar    
  17 C17           -0.2608    -6.7929    -2.4864 C.ar    
  18 C18           -0.5811    -6.0615    -3.6152 C.ar    
  19 C19           -0.6878    -4.6828    -3.5420 C.ar    
  20 C20           -0.4793    -4.0356    -2.3368 C.ar    
  21 C21            0.3041    -6.9490    -0.0539 C.3     
  22 F22           -1.0004    -3.9700    -4.6462 F       
  23 F23           -2.3431    -2.8468     0.2872 F       
  24 F24            2.2784     0.0489    -0.2783 F       
  25 H25            2.1273    -2.5535    -0.2726 H       
  26 H26           -2.2067    -0.2466     0.2951 H       
  27 H27           -2.1348     1.5843     0.2756 H       
  28 H28           -1.5283     3.8175    -2.2064 H       
  29 H29           -0.8543     5.3283    -1.5497 H       
  30 H30            0.1625     3.8710    -1.6529 H       
  31 H31           -0.1782    -7.8681    -2.5459 H       
  32 H32           -0.7480    -6.5662    -4.5553 H       
  33 H33           -0.5670    -2.9607    -2.2780 H       
  34 H34           -0.6100    -7.2308     0.4687 H       
  35 H35            0.8468    -7.8476    -0.3471 H       
  36 H36            0.9285    -6.3463     0.6055 H       
@<TRIPOS>BOND
   1    1    2 1
   2    1    8 2
   3    1    9 am
   4    2    3 ar
   5    2    7 ar
   6    3    4 ar
   7    3   24 1
   8    4    5 ar
   9    4   25 1
  10    5    6 ar
  11    5   14 1
  12    6    7 ar
  13    6   23 1
  14    7   26 1
  15    9   10 am
  16    9   27 1
  17   10   11 2
  18   10   12 2
  19   10   13 1
  20   13   28 1
  21   13   29 1
  22   13   30 1
  23   14   15 1
  24   15   16 ar
  25   15   20 ar
  26   16   17 ar
  27   16   21 1
  28   17   18 ar
  29   17   31 1
  30   18   19 ar
  31   18   32 1
  32   19   20 ar
  33   19   22 1
  34   20   33 1
  35   21   34 1
  36   21   35 1
  37   21   36 1

#	End of record

