#	Name: ASD01913522
#	Creating user name:	WinNT
#	Creation time:	15. 06. 2019 20:01

#	Modifying user name:	WinNT
#	Modification time:	15. 06. 2019 20:01

#	Program:	/corina/corina34_cracker 3.40 0067  02.08.2006

@<TRIPOS>MOLECULE
ASD01913522
  52   56    0    0    0
SMALL
NO_CHARGES


@<TRIPOS>ATOM
   1 C1             0.0901     1.4549     0.3149 C.ar    
   2 C2             0.0490    -0.0130     0.1343 C.2     
   3 N3            -1.0124    -0.8155     0.3819 N.pl3   
   4 N4            -0.6028    -2.1224     0.0718 N.2     
   5 C5             0.6461    -2.0459    -0.3347 C.2     
   6 N6             1.0364    -0.7669    -0.3008 N.2     
   7 C7             1.4842    -3.1921    -0.7660 C.ar    
   8 C8             2.7989    -2.9808    -1.1766 C.ar    
   9 C9             3.5748    -4.0494    -1.5763 C.ar    
  10 C10            3.0484    -5.3310    -1.5703 C.ar    
  11 C11            1.7416    -5.5454    -1.1632 C.ar    
  12 C12            0.9606    -4.4833    -0.7560 C.ar    
  13 C13           -2.3282    -0.4024     0.8761 C.3     
  14 C14           -3.2439    -0.1406    -0.2917 C.2     
  15 N15           -4.5146     0.2539    -0.0765 N.am    
  16 O16           -2.8375    -0.2848    -1.4253 O.2     
  17 F17            3.8115    -6.3744    -1.9629 F       
  18 C18           -5.4346     0.5178    -1.1961 C.3     
  19 C19            1.3155     2.1115     0.4336 C.ar    
  20 C20           -1.0962     2.1879     0.3614 C.ar    
  21 C21           -1.0524     3.5561     0.5294 C.ar    
  22 C22            0.1671     4.2029     0.6521 C.ar    
  23 C23            1.3484     3.4800     0.6014 C.ar    
  24 F24            0.2047     5.5434     0.8162 F       
  25 C25           -6.5970    -0.4733    -1.0961 C.3     
  26 C26           -7.0998    -0.5489     0.3150 C.2     
  27 C27           -6.4161    -0.1573     1.3680 C.2     
  28 C28           -5.0393     0.4318     1.2850 C.3     
  29 C29           -8.4471    -1.0971     0.5358 C.2     
  30 N30           -9.2593    -1.5373    -0.3987 N.2     
  31 O31           -9.0526    -1.2374     1.7286 O.3     
  32 C32          -10.2697    -1.7732     1.5094 C.2     
  33 C33          -10.3926    -1.9578     0.1818 C.2     
  34 H34            3.2098    -1.9821    -1.1823 H       
  35 H35            4.5939    -3.8865    -1.8947 H       
  36 H36            1.3349    -6.5459    -1.1607 H       
  37 H37           -0.0579    -4.6514    -0.4385 H       
  38 H38           -2.7481    -1.1940     1.4968 H       
  39 H39           -2.2249     0.5071     1.4679 H       
  40 H40           -5.8132     1.5378    -1.1294 H       
  41 H41           -4.9125     0.3791    -2.1428 H       
  42 H42            2.2366     1.5490     0.3946 H       
  43 H43           -2.0470     1.6848     0.2655 H       
  44 H44           -1.9701     4.1245     0.5651 H       
  45 H45            2.2963     3.9887     0.6975 H       
  46 H46           -7.4059    -0.1475    -1.7500 H       
  47 H47           -6.2576    -1.4600    -1.4113 H       
  48 H48           -6.8680    -0.2685     2.3425 H       
  49 H49           -4.3853    -0.0685     1.9991 H       
  50 H50           -5.0842     1.4964     1.5145 H       
  51 H51          -11.0084    -2.0126     2.2600 H       
  52 H52          -11.2517    -2.3708    -0.3259 H       
@<TRIPOS>BOND
   1    1    2 1
   2    1   19 ar
   3    1   20 ar
   4    2    3 1
   5    2    6 2
   6    3    4 1
   7    3   13 1
   8    4    5 2
   9    5    6 1
  10    5    7 1
  11    7    8 ar
  12    7   12 ar
  13    8    9 ar
  14    8   34 1
  15    9   10 ar
  16    9   35 1
  17   10   11 ar
  18   10   17 1
  19   11   12 ar
  20   11   36 1
  21   12   37 1
  22   13   14 1
  23   13   38 1
  24   13   39 1
  25   14   15 am
  26   14   16 2
  27   15   18 1
  28   15   28 1
  29   18   25 1
  30   18   40 1
  31   18   41 1
  32   19   23 ar
  33   19   42 1
  34   20   21 ar
  35   20   43 1
  36   21   22 ar
  37   21   44 1
  38   22   23 ar
  39   22   24 1
  40   23   45 1
  41   25   26 1
  42   25   46 1
  43   25   47 1
  44   26   27 2
  45   26   29 1
  46   27   28 1
  47   27   48 1
  48   28   49 1
  49   28   50 1
  50   29   31 1
  51   29   30 2
  52   30   33 1
  53   31   32 1
  54   32   33 2
  55   32   51 1
  56   33   52 1

#	End of record

