#	Name: ASD01813865
#	Creating user name:	WinNT
#	Creation time:	15. 06. 2019 19:31

#	Modifying user name:	WinNT
#	Modification time:	15. 06. 2019 19:31

#	Program:	/corina/corina34_cracker 3.40 0067  02.08.2006

@<TRIPOS>MOLECULE
ASD01813865
  55   58    0    0    0
SMALL
NO_CHARGES


@<TRIPOS>ATOM
   1 C1             0.0639     1.3492     0.2064 C.2     
   2 C2             0.0616    -0.0505     0.1391 C.2     
   3 C3             1.2480    -0.7229     0.1006 C.2     
   4 C4             2.4524    -0.0003     0.1290 C.2     
   5 N5             2.4252     1.3663     0.1952 N.am    
   6 C6             1.2334     2.0275     0.2329 C.2     
   7 C7             3.6730    -0.6889     0.0896 C.2     
   8 C8             4.8488     0.0034     0.1171 C.2     
   9 C9             4.8169     1.4087     0.1847 C.2     
  10 C10            3.5736     2.0722     0.2234 C.2     
  11 O11            3.5366     3.2897     0.2817 O.2     
  12 C12            6.0645     2.1752     0.2159 C.2     
  13 O13            6.0272     3.5221     0.2807 O.3     
  14 O14            7.1344     1.5972     0.1834 O.2     
  15 C15            3.6867    -2.1941     0.0173 C.3     
  16 N16            3.8047    -2.6159    -1.3849 N.3     
  17 C17            4.0591    -4.0601    -1.4808 C.3     
  18 C18            4.0961    -4.4721    -2.9543 C.3     
  19 N19            5.1430    -3.7087    -3.6477 N.3     
  20 C20            4.8886    -2.2645    -3.5518 C.3     
  21 C21            4.8516    -1.8525    -2.0783 C.3     
  22 C22            5.2554    -4.1105    -4.9834 C.ar    
  23 C23            6.4857    -4.5113    -5.4872 C.ar    
  24 C24            6.5957    -4.9077    -6.8056 C.ar    
  25 C25            5.4778    -4.9051    -7.6265 C.ar    
  26 C26            4.2485    -4.5045    -7.1243 C.ar    
  27 C27            4.1354    -4.1141    -5.8043 C.ar    
  28 C28            4.4011    -5.9678    -3.0587 C.3     
  29 O29            5.5871    -5.2951    -8.9248 O.3     
  30 C30            4.3954    -5.2678    -9.7130 C.3     
  31 H31           -0.8716     1.8883     0.2328 H       
  32 H32           -0.8721    -0.5928     0.1183 H       
  33 H33            1.2613    -1.8016     0.0490 H       
  34 H34            1.2233     3.1062     0.2851 H       
  35 H35            5.7925    -0.5209     0.0877 H       
  36 H36            6.8763     3.9844     0.2991 H       
  37 H37            4.5349    -2.5774     0.5846 H       
  38 H38            2.7610    -2.5865     0.4381 H       
  39 H39            5.0163    -4.2925    -1.0141 H       
  40 H40            3.2640    -4.6040    -0.9709 H       
  41 H41            3.1298    -4.2648    -3.4143 H       
  42 H42            5.6837    -1.7205    -4.0617 H       
  43 H43            3.9314    -2.0321    -4.0185 H       
  44 H44            4.6343    -0.7869    -2.0040 H       
  45 H45            5.8179    -2.0598    -1.6183 H       
  46 H46            7.3565    -4.5127    -4.8482 H       
  47 H47            7.5526    -5.2194    -7.1975 H       
  48 H48            3.3786    -4.5024    -7.7643 H       
  49 H49            3.1781    -3.8025    -5.4133 H       
  50 H50            3.6816    -6.5279    -2.4614 H       
  51 H51            4.3308    -6.2812    -4.1003 H       
  52 H52            5.4082    -6.1598    -2.6886 H       
  53 H53            3.6515    -5.9298    -9.2699 H       
  54 H54            4.0040    -4.2509    -9.7446 H       
  55 H55            4.6218    -5.6016   -10.7256 H       
@<TRIPOS>BOND
   1    1    2 1
   2    1    6 2
   3    1   31 1
   4    2    3 2
   5    2   32 1
   6    3    4 1
   7    3   33 1
   8    4    5 1
   9    4    7 2
  10    5    6 1
  11    5   10 am
  12    6   34 1
  13    7    8 1
  14    7   15 1
  15    8    9 2
  16    8   35 1
  17    9   10 1
  18    9   12 1
  19   10   11 2
  20   12   13 1
  21   12   14 2
  22   13   36 1
  23   15   16 1
  24   15   37 1
  25   15   38 1
  26   16   17 1
  27   16   21 1
  28   17   18 1
  29   17   39 1
  30   17   40 1
  31   18   19 1
  32   18   28 1
  33   18   41 1
  34   19   20 1
  35   19   22 1
  36   20   21 1
  37   20   42 1
  38   20   43 1
  39   21   44 1
  40   21   45 1
  41   22   23 ar
  42   22   27 ar
  43   23   24 ar
  44   23   46 1
  45   24   25 ar
  46   24   47 1
  47   25   26 ar
  48   25   29 1
  49   26   27 ar
  50   26   48 1
  51   27   49 1
  52   28   50 1
  53   28   51 1
  54   28   52 1
  55   29   30 1
  56   30   53 1
  57   30   54 1
  58   30   55 1

#	End of record

