#	Name: ASD05510002
#	Creating user name:	WinNT
#	Creation time:	15. 06. 2019 21:01

#	Modifying user name:	WinNT
#	Modification time:	15. 06. 2019 21:01

#	Program:	/corina/corina34_cracker 3.40 0067  02.08.2006

@<TRIPOS>MOLECULE
ASD05510002
  36   38    0    0    0
SMALL
NO_CHARGES


@<TRIPOS>ATOM
   1 C1            -0.4730     5.3386     2.9409 C.ar    
   2 C2            -0.6713     5.7791     4.2341 C.ar    
   3 C3             0.3378     6.4570     4.8991 C.ar    
   4 C4             1.5490     6.6993     4.2798 C.ar    
   5 C5             0.7426     5.5778     2.3094 C.ar    
   6 C6             1.2691     5.2488     0.9653 C.2     
   7 C7             1.7663     6.2630     2.9780 C.ar    
   8 N8             2.8689     6.3721     2.1386 N.am    
   9 C9             2.6372     5.7963     0.9467 C.2     
  10 O10            3.4196     5.7369     0.0160 O.2     
  11 C11            0.6274     4.5826    -0.0380 C.2     
  12 C12           -0.7917     4.2411     0.0995 C.2     
  13 C13           -1.6967     5.2085     0.3502 C.2     
  14 C14           -1.2320     2.8303    -0.0372 C.ar    
  15 Cl15           0.0779     7.0073     6.5250 Cl      
  16 C16           -2.0544     0.1956    -0.2936 C.ar    
  17 C17           -1.7457     0.9369    -1.4207 C.ar    
  18 C18           -1.3358     2.2491    -1.2986 C.ar    
  19 C19           -1.5388     2.0774     1.0997 C.ar    
  20 C20           -1.9493     0.7609     0.9629 C.ar    
  21 O21           -1.4347     2.6342     2.3345 O.3     
  22 C22           -1.7647     1.8045     3.4502 C.3     
  23 H23           -1.2572     4.8062     2.4233 H       
  24 H24           -1.6141     5.5956     4.7279 H       
  25 H25            2.3280     7.2290     4.8079 H       
  26 H26            3.7003     6.8084     2.3823 H       
  27 H27            1.1648     4.3071    -0.9333 H       
  28 H28           -2.7421     4.9568     0.4515 H       
  29 H29           -1.3763     6.2350     0.4497 H       
  30 H30           -2.3745    -0.8307    -0.3963 H       
  31 H31           -1.8302     0.4884    -2.3995 H       
  32 H32           -1.0960     2.8248    -2.1803 H       
  33 H33           -2.1918     0.1776     1.8389 H       
  34 H34           -1.1066     0.9357     3.4642 H       
  35 H35           -1.6392     2.3702     4.3734 H       
  36 H36           -2.8000     1.4746     3.3640 H       
@<TRIPOS>BOND
   1    1    2 ar
   2    1    5 ar
   3    1   23 1
   4    2    3 ar
   5    2   24 1
   6    3    4 ar
   7    3   15 1
   8    4    7 ar
   9    4   25 1
  10    5    7 ar
  11    5    6 1
  12    6    9 1
  13    6   11 2
  14    7    8 1
  15    8    9 am
  16    8   26 1
  17    9   10 2
  18   11   12 1
  19   11   27 1
  20   12   13 2
  21   12   14 1
  22   13   28 1
  23   13   29 1
  24   14   19 ar
  25   14   18 ar
  26   16   17 ar
  27   16   20 ar
  28   16   30 1
  29   17   18 ar
  30   17   31 1
  31   18   32 1
  32   19   20 ar
  33   19   21 1
  34   20   33 1
  35   21   22 1
  36   22   34 1
  37   22   35 1
  38   22   36 1

#	End of record

