#	Name: ASD01916955
#	Creating user name:	WinNT
#	Creation time:	15. 06. 2019 20:08

#	Modifying user name:	WinNT
#	Modification time:	15. 06. 2019 20:08

#	Program:	/corina/corina34_cracker 3.40 0067  02.08.2006

@<TRIPOS>MOLECULE
ASD01916955
  63   67    0    0    0
SMALL
NO_CHARGES


@<TRIPOS>ATOM
   1 C1             0.1458     1.2316     0.4879 C.ar    
   2 C2             0.2806    -0.1197     0.7623 C.ar    
   3 C3             1.5402    -0.6828     0.8884 C.ar    
   4 C4             2.6663     0.1008     0.7411 C.ar    
   5 C5             2.5353     1.4603     0.4651 C.ar    
   6 C6             1.2666     2.0225     0.3391 C.ar    
   7 C7             3.7436     2.3071     0.3063 C.2     
   8 N8             5.0084     1.8829     0.4044 N.2     
   9 N9             3.7445     3.5957     0.0406 N.2     
  10 N10            5.0881     3.9984    -0.0248 N.pl3   
  11 C11            5.8312     2.8917     0.2092 C.2     
  12 C12            7.3090     2.8270     0.2401 C.ar    
  13 C13            5.5870     5.3487    -0.2971 C.3     
  14 C14            5.7120     6.1087     0.9981 C.2     
  15 O15            5.4137     5.5751     2.0456 O.2     
  16 N16            6.1552     7.3815     0.9925 N.am    
  17 C17            6.2847     8.1413     2.2452 C.3     
  18 C18            7.6924     8.7437     2.3059 C.3     
  19 N19            7.9443     9.5161     1.0820 N.3     
  20 C20            7.9206     8.6536    -0.1069 C.3     
  21 C21            6.5280     8.0455    -0.2658 C.3     
  22 C22            9.1398    10.2078     1.1692 C.ar    
  23 C23            8.0568     3.9901     0.4263 C.ar    
  24 C24            9.4341     3.9245     0.4543 C.ar    
  25 C25           10.0754     2.7060     0.2973 C.ar    
  26 C26            9.3372     1.5479     0.1116 C.ar    
  27 C27            7.9593     1.6019     0.0887 C.ar    
  28 F28           11.4249     2.6470     0.3250 F       
  29 F29           -0.8194    -0.8905     0.9078 F       
  30 N30            9.8715    10.0967     2.2679 N.ar    
  31 N31            9.5265    10.9601     0.1498 N.ar    
  32 C32           10.6695    11.6361     0.2029 C.ar    
  33 C33           11.4597    11.5425     1.3509 C.ar    
  34 C34           11.0220    10.7431     2.3884 C.ar    
  35 N35           11.0716    12.4217    -0.8649 N.pl3   
  36 C36           12.3374    13.1563    -0.7981 C.3     
  37 C37           10.2311    12.5179    -2.0609 C.3     
  38 H38           -0.8378     1.6657     0.3859 H       
  39 H39            1.6408    -1.7365     1.1027 H       
  40 H40            3.6478    -0.3388     0.8400 H       
  41 H41            1.1607     3.0757     0.1249 H       
  42 H42            6.5637     5.2853    -0.7769 H       
  43 H43            4.8911     5.8669    -0.9568 H       
  44 H44            5.5434     8.9401     2.2672 H       
  45 H45            6.1346     7.4751     3.0947 H       
  46 H46            7.7702     9.3999     3.1727 H       
  47 H47            8.4274     7.9430     2.3883 H       
  48 H48            8.1638     9.2445    -0.9899 H       
  49 H49            8.6524     7.8541     0.0092 H       
  50 H50            6.5367     7.3177    -1.0771 H       
  51 H51            5.8073     8.8334    -0.4846 H       
  52 H52            7.5579     4.9402     0.5480 H       
  53 H53           10.0138     4.8242     0.5984 H       
  54 H54            9.8417     0.6008    -0.0106 H       
  55 H55            7.3849     0.6988    -0.0558 H       
  56 H56           12.3938    12.0796     1.4238 H       
  57 H57           11.6092    10.6489     3.2899 H       
  58 H58           12.8647    12.8890     0.1177 H       
  59 H59           12.9528    12.8989    -1.6601 H       
  60 H60           12.1364    14.2276    -0.8020 H       
  61 H61            9.5333    13.3478    -1.9489 H       
  62 H62           10.8604    12.6879    -2.9345 H       
  63 H63            9.6742    11.5898    -2.1893 H       
@<TRIPOS>BOND
   1    1    2 ar
   2    1    6 ar
   3    1   38 1
   4    2    3 ar
   5    2   29 1
   6    3    4 ar
   7    3   39 1
   8    4    5 ar
   9    4   40 1
  10    5    6 ar
  11    5    7 1
  12    6   41 1
  13    7    8 1
  14    7    9 2
  15    8   11 2
  16    9   10 1
  17   10   11 1
  18   10   13 1
  19   11   12 1
  20   12   23 ar
  21   12   27 ar
  22   13   14 1
  23   13   42 1
  24   13   43 1
  25   14   15 2
  26   14   16 am
  27   16   17 1
  28   16   21 1
  29   17   18 1
  30   17   44 1
  31   17   45 1
  32   18   19 1
  33   18   46 1
  34   18   47 1
  35   19   20 1
  36   19   22 1
  37   20   21 1
  38   20   48 1
  39   20   49 1
  40   21   50 1
  41   21   51 1
  42   22   31 ar
  43   22   30 ar
  44   23   24 ar
  45   23   52 1
  46   24   25 ar
  47   24   53 1
  48   25   26 ar
  49   25   28 1
  50   26   27 ar
  51   26   54 1
  52   27   55 1
  53   30   34 ar
  54   31   32 ar
  55   32   33 ar
  56   32   35 1
  57   33   34 ar
  58   33   56 1
  59   34   57 1
  60   35   36 1
  61   35   37 1
  62   36   58 1
  63   36   59 1
  64   36   60 1
  65   37   61 1
  66   37   62 1
  67   37   63 1

#	End of record

