#	Name: ASD06590052
#	Creating user name:	WinNT
#	Creation time:	15. 06. 2019 21:06

#	Modifying user name:	WinNT
#	Modification time:	15. 06. 2019 21:06

#	Program:	/corina/corina34_cracker 3.40 0067  02.08.2006

@<TRIPOS>MOLECULE
ASD06590052
 279  278    0    0    0
SMALL
NO_CHARGES


@<TRIPOS>ATOM
   1 C1           -26.3878     4.1030     3.3413 C.2     
   2 O2           -26.2571     2.8998     3.2628 O.2     
   3 N3           -24.5269     4.0734     4.9037 N.3     
   4 C4           -25.3318     4.9326     4.0251 C.3     
   5 C5           -24.4270     5.5754     2.9720 C.3     
   6 C6           -23.4338     6.5154     3.6581 C.3     
   7 C7           -22.5289     7.1581     2.6050 C.3     
   8 N8           -21.5779     8.0582     3.2619 N.pl3   
   9 C9           -20.6584     8.7522     2.5124 C.2     
  10 N10          -20.5529     8.5223     1.2353 N.2     
  11 N11          -19.8460     9.6938     3.1142 N.am    
  12 C12          -29.2393     4.7482     1.1468 C.2     
  13 O13          -29.0186     5.9394     1.0881 O.2     
  14 N14          -27.4748     4.6987     2.8121 N.am    
  15 C15          -28.4985     3.8928     2.1421 C.3     
  16 C16          -29.4823     3.3513     3.1812 C.3     
  17 C17          -28.7643     2.3531     4.0917 C.3     
  18 C18          -30.0251     4.5090     4.0215 C.3     
  19 C19          -32.2259     4.3393    -0.9210 C.2     
  20 O20          -32.4690     3.2474    -0.4523 O.2     
  21 N21          -30.1471     4.1896     0.3220 N.am    
  22 C22          -30.9317     5.0333    -0.5828 C.3     
  23 C23          -30.1363     5.2826    -1.8658 C.3     
  24 C24          -28.8827     6.0964    -1.5387 C.3     
  25 C25          -28.0246     6.2394    -2.7973 C.3     
  26 C26          -29.2912     7.4839    -1.0397 C.3     
  27 C27          -34.8799     4.7609    -3.3992 C.2     
  28 O28          -34.2531     5.6008    -4.0097 O.2     
  29 N29          -33.1133     4.9320    -1.7442 N.am    
  30 C30          -34.3715     4.2573    -2.0730 C.3     
  31 C31          -35.4067     4.5504    -0.9852 C.3     
  32 C32          -38.0203     4.5876    -5.2623 C.2     
  33 O33          -38.6142     4.0984    -4.3248 O.2     
  34 N34          -36.0313     4.2781    -3.9069 N.am    
  35 C35          -36.5256     4.7677    -5.1961 C.3     
  36 C36          -35.8661     3.9779    -6.3285 C.3     
  37 C37          -34.3447     4.0586    -6.1878 C.3     
  38 O38          -36.2789     2.6115    -6.2595 O.3     
  39 C39          -40.5813     4.6993    -7.8684 C.2     
  40 O40          -39.7561     4.7704    -8.7543 O.2     
  41 N41          -38.6971     4.9701    -6.3633 N.am    
  42 C42          -40.1502     4.7950    -6.4276 C.3     
  43 C43          -40.8378     5.9920    -5.7678 C.3     
  44 C44          -40.4987     6.0165    -4.2761 C.3     
  45 C45          -41.1863     7.2135    -3.6164 C.3     
  46 C46          -40.8472     7.2380    -2.1246 C.3     
  47 N47          -41.5074     8.3873    -1.4912 N.3     
  48 C48          -43.7423     4.8715    -9.6964 C.2     
  49 O49          -44.3573     5.2210    -8.7113 O.2     
  50 N50          -41.8840     4.5347    -8.1725 N.am    
  51 C51          -42.3031     4.4417    -9.5732 C.3     
  52 C52          -42.1595     2.9962   -10.0536 C.3     
  53 C53          -40.6816     2.6008   -10.0462 C.3     
  54 C54          -40.5481     1.1198   -10.4063 C.3     
  55 C55          -39.9226     3.4454   -11.0717 C.3     
  56 C56          -46.3577     4.6452   -12.2404 C.2     
  57 O57          -45.6913     3.9124   -12.9402 O.2     
  58 N58          -44.3459     4.8674   -10.9014 N.am    
  59 C59          -45.7450     5.2851   -11.0213 C.3     
  60 C60          -45.8129     6.8077   -11.1559 C.3     
  61 C61          -45.3057     7.4568    -9.8666 C.3     
  62 C62          -45.3736     8.9793   -10.0012 C.3     
  63 N63          -44.8879     9.6008    -8.7666 N.pl3   
  64 C64          -44.8556    10.9706    -8.6532 C.2     
  65 N65          -45.2571    11.7162    -9.6440 N.2     
  66 N66          -44.3998    11.5539    -7.4947 N.pl3   
  67 C67          -49.3961     5.1056   -14.2200 C.2     
  68 O68          -49.6922     6.1238   -13.6314 O.2     
  69 N69          -47.6461     4.8873   -12.5530 N.am    
  70 C70          -48.2417     4.2653   -13.7381 C.3     
  71 C71          -48.7443     2.8650   -13.3810 C.3     
  72 C72          -47.5557     1.9755   -13.0111 C.3     
  73 C73          -48.0507     0.5962   -12.6593 C.2     
  74 O74          -49.2329     0.3500   -12.7003 O.2     
  75 O75          -47.1783    -0.3587   -12.3005 O.3     
  76 C76          -52.1868     4.6769   -16.5419 C.2     
  77 O77          -51.8694     3.5508   -16.8614 O.2     
  78 N78          -50.0995     4.7256   -15.3050 N.am    
  79 C79          -51.2218     5.5425   -15.7735 C.3     
  80 C80          -50.6978     6.6547   -16.6842 C.3     
  81 C81          -49.7207     7.5356   -15.9030 C.3     
  82 O82          -50.0260     6.0759   -17.8048 O.3     
  83 C83          -55.0424     5.0658   -18.6609 C.2     
  84 O84          -54.7479     6.2263   -18.8538 O.2     
  85 N85          -53.4027     5.1542   -16.8740 N.am    
  86 C86          -54.3666     4.2899   -17.5598 C.3     
  87 C87          -55.4173     3.8036   -16.5596 C.3     
  88 C88          -54.7708     2.8765   -15.5628 C.2     
  89 O89          -53.5834     2.6403   -15.6357 O.2     
  90 N90          -55.5121     2.3098   -14.5903 N.am    
  91 C91          -57.9787     4.6151   -20.7911 C.2     
  92 O92          -58.3535     3.6464   -20.1650 O.2     
  93 N93          -55.9740     4.4699   -19.4312 N.am    
  94 C94          -56.6310     5.2241   -20.5016 C.3     
  95 C95          -55.7676     5.1755   -21.7638 C.3     
  96 C96          -60.7534     5.3306   -23.1284 C.2     
  97 O97          -60.1956     6.2842   -23.6288 O.2     
  98 N98          -58.7675     5.1469   -21.7458 N.am    
  99 C99          -60.0776     4.5548   -22.0273 C.3     
 100 C100         -63.3539     6.9049   -24.0380 C.2     
 101 O101         -63.3211     7.1000   -22.8460 O.2     
 102 N102         -61.9777     4.9648   -23.5570 N.am    
 103 C103         -62.6347     5.7190   -24.6274 C.3     
 104 C104         -63.6413     4.8164   -25.3436 C.3     
 105 C105         -62.8968     3.6800   -26.0473 C.3     
 106 C106         -63.9035     2.7774   -26.7635 C.3     
 107 N107         -63.1906     1.6892   -27.4372 N.pl3   
 108 C108         -63.8918     0.7463   -28.1509 C.2     
 109 N109         -65.1909     0.8205   -28.2280 N.2     
 110 N110         -63.2229    -0.2749   -28.7832 N.pl3   
 111 O111         -64.0310     7.7444   -24.8371 O.3     
 112 C112         -20.0398    10.0238     4.4065 C.2     
 113 O113         -20.8732     9.4374     5.0636 O.2     
 114 C114         -16.3045    20.1333    19.7374 C.3     
 115 C115         -17.1361    19.0186    19.0995 C.3     
 116 C116         -16.7211    18.8459    17.6370 C.3     
 117 C117         -17.5527    17.7312    16.9991 C.3     
 118 C118         -17.1377    17.5586    15.5366 C.3     
 119 C119         -17.9693    16.4439    14.8987 C.3     
 120 C120         -17.5543    16.2712    13.4363 C.3     
 121 C121         -18.3859    15.1565    12.7984 C.3     
 122 C122         -17.9709    14.9838    11.3359 C.3     
 123 C123         -18.8025    13.8692    10.6980 C.3     
 124 C124         -18.3875    13.6965     9.2355 C.3     
 125 C125         -19.2191    12.5818     8.5976 C.3     
 126 C126         -18.8041    12.4091     7.1351 C.3     
 127 C127         -19.6357    11.2945     6.4973 C.3     
 128 C128         -19.2207    11.1218     5.0348 C.3     
 129 H129         -24.0731     3.3420     4.3772 H       
 130 H130         -23.8533     4.6167     5.4225 H       
 131 H131         -25.8098     5.7123     4.6181 H       
 132 H132         -23.8815     4.7973     2.4380 H       
 133 H133         -25.0355     6.1416     2.2669 H       
 134 H134         -23.9793     7.2934     4.1921 H       
 135 H135         -22.8252     5.9491     4.3632 H       
 136 H136         -21.9834     6.3801     2.0710 H       
 137 H137         -23.1375     7.7244     1.8999 H       
 138 H138         -21.5972     8.1643     4.2259 H       
 139 H139         -19.9565     9.0619     0.6931 H       
 140 H140         -19.1361    10.1174     2.6067 H       
 141 H141         -27.5794     5.6610     2.8750 H       
 142 H142         -28.0234     3.0604     1.6231 H       
 143 H143         -30.3079     2.8520     2.6743 H       
 144 H144         -28.0047     2.8741     4.6745 H       
 145 H145         -29.4862     1.8916     4.7655 H       
 146 H146         -28.2905     1.5824     3.4836 H       
 147 H147         -30.5366     5.2202     3.3729 H       
 148 H148         -30.7259     4.1232     4.7618 H       
 149 H149         -29.1994     5.0083     4.5285 H       
 150 H150         -30.2809     3.2289     0.3275 H       
 151 H151         -31.1460     5.9854    -0.0974 H       
 152 H152         -29.8456     4.3280    -2.3044 H       
 153 H153         -30.7535     5.8350    -2.5744 H       
 154 H154         -28.3099     5.5860    -0.7645 H       
 155 H155         -28.5974     6.7499    -3.5715 H       
 156 H156         -27.1315     6.8192    -2.5643 H       
 157 H157         -27.7336     5.2510    -3.1528 H       
 158 H158         -29.9025     7.3820    -0.1430 H       
 159 H159         -28.3981     8.0637    -0.8066 H       
 160 H160         -29.8640     7.9944    -1.8139 H       
 161 H161         -32.9189     5.8053    -2.1191 H       
 162 H162         -34.2023     3.1822    -2.1333 H       
 163 H163         -35.5759     5.6255    -0.9249 H       
 164 H164         -36.3428     4.0485    -1.2298 H       
 165 H165         -35.0390     4.1862    -0.0260 H       
 166 H166         -36.5326     3.6064    -3.4186 H       
 167 H167         -36.2820     5.8250    -5.3009 H       
 168 H168         -36.1652     4.3998    -7.2879 H       
 169 H169         -34.0456     3.6367    -5.2284 H       
 170 H170         -33.8749     3.4959    -6.9945 H       
 171 H171         -34.0298     5.1008    -6.2405 H       
 172 H172         -36.0452     2.1714    -5.4308 H       
 173 H173         -38.2221     5.3613    -7.1130 H       
 174 H174         -40.4295     3.8811    -5.9033 H       
 175 H175         -40.4900     6.9135    -6.2347 H       
 176 H176         -41.9171     5.9058    -5.8937 H       
 177 H177         -40.8465     5.0950    -3.8092 H       
 178 H178         -39.4194     6.1027    -4.1502 H       
 179 H179         -40.8385     8.1350    -4.0832 H       
 180 H180         -42.2656     7.1273    -3.7423 H       
 181 H181         -41.1950     6.3165    -1.6578 H       
 182 H182         -39.7679     7.3242    -1.9987 H       
 183 H183         -41.2988     8.4257    -0.5048 H       
 184 H184         -41.2508     9.2492    -1.9489 H       
 185 H185         -42.5440     4.4779    -7.4639 H       
 186 H186         -41.6763     5.0915   -10.1839 H       
 187 H187         -42.7158     2.3354    -9.3887 H       
 188 H188         -42.5540     2.9089   -11.0659 H       
 189 H189         -40.2644     2.7725    -9.0540 H       
 190 H190         -40.9652     0.9481   -11.3986 H       
 191 H191         -39.4951     0.8381   -10.4011 H       
 192 H192         -41.0888     0.5181    -9.6758 H       
 193 H193         -40.0176     4.5005   -10.8151 H       
 194 H194         -38.8696     3.1637   -11.0664 H       
 195 H195         -40.3397     3.2737   -12.0639 H       
 196 H196         -43.8541     4.5878   -11.6893 H       
 197 H197         -46.2944     4.9741   -10.1327 H       
 198 H198         -45.1909     7.1266   -11.9923 H       
 199 H199         -46.8446     7.1110   -11.3339 H       
 200 H200         -45.9276     7.1379    -9.0302 H       
 201 H201         -44.2740     7.1534    -9.6885 H       
 202 H202         -44.7516     9.2982   -10.8376 H       
 203 H203         -46.4052     9.2827   -10.1792 H       
 204 H204         -44.5891     9.0459    -8.0293 H       
 205 H205         -45.2343    12.6827    -9.5640 H       
 206 H206         -44.1010    10.9989    -6.7573 H       
 207 H207         -44.3770    12.5203    -7.4146 H       
 208 H208         -48.1791     5.4734   -11.9932 H       
 209 H209         -47.4918     4.1922   -14.5258 H       
 210 H210         -49.4275     2.9292   -12.5341 H       
 211 H211         -49.2659     2.4369   -14.2370 H       
 212 H212         -46.8725     1.9113   -13.8580 H       
 213 H213         -47.0340     2.4035   -12.1551 H       
 214 H214         -47.5431    -1.2277   -12.0839 H       
 215 H215         -49.8627     3.9112   -15.7757 H       
 216 H216         -51.7320     5.9840   -14.9174 H       
 217 H217         -51.5330     7.2610   -17.0347 H       
 218 H218         -48.8849     6.9295   -15.5534 H       
 219 H219         -49.3482     8.3285   -16.5515 H       
 220 H220         -50.2328     7.9762   -15.0477 H       
 221 H221         -50.5864     5.5036   -18.3467 H       
 222 H222         -53.6396     6.0699   -16.6591 H       
 223 H223         -53.8464     3.4322   -17.9861 H       
 224 H224         -55.8442     4.6592   -16.0362 H       
 225 H225         -56.2065     3.2721   -17.0913 H       
 226 H226         -56.4617     2.4987   -14.5319 H       
 227 H227         -55.0959     1.7131   -13.9487 H       
 228 H228         -56.2096     3.5417   -19.2769 H       
 229 H229         -56.7601     6.2604   -20.1895 H       
 230 H230         -55.6385     4.1391   -22.0760 H       
 231 H231         -56.2564     5.7366   -22.5602 H       
 232 H232         -54.7928     5.6160   -21.5544 H       
 233 H233         -58.4677     5.9216   -22.2466 H       
 234 H234         -60.6927     4.5895   -21.1281 H       
 235 H235         -59.9485     3.5185   -22.3394 H       
 236 H236         -62.4239     4.2021   -23.1568 H       
 237 H237         -61.8861     6.0655   -25.3400 H       
 238 H238         -64.3371     4.3990   -24.6158 H       
 239 H239         -64.1930     5.4003   -26.0803 H       
 240 H240         -62.2010     4.0973   -26.7751 H       
 241 H241         -62.3451     3.0960   -25.3106 H       
 242 H242         -64.5993     2.3600   -26.0356 H       
 243 H243         -64.4552     3.3613   -27.5002 H       
 244 H244         -62.2239     1.6340   -27.3798 H       
 245 H245         -65.6856     0.1552   -28.7316 H       
 246 H246         -62.2561    -0.3301   -28.7258 H       
 247 H247         -63.7176    -0.9402   -29.2868 H       
 248 H248         -64.4763     8.4907   -24.4131 H       
 249 H249         -15.2475    19.8717    19.6881 H       
 250 H250         -16.4735    21.0660    19.1992 H       
 251 H251         -16.6002    20.2563    20.7793 H       
 252 H252         -16.9672    18.0859    19.6377 H       
 253 H253         -18.1931    19.2802    19.1488 H       
 254 H254         -16.8901    19.7786    17.0988 H       
 255 H255         -15.6641    18.5843    17.5877 H       
 256 H256         -17.3838    16.7985    17.5373 H       
 257 H257         -18.6097    17.9929    17.0484 H       
 258 H258         -17.3067    18.4913    14.9985 H       
 259 H259         -16.0807    17.2969    15.4873 H       
 260 H260         -17.8004    15.5112    15.4369 H       
 261 H261         -19.0263    16.7055    14.9480 H       
 262 H262         -17.7233    17.2039    12.8981 H       
 263 H263         -16.4973    16.0096    13.3870 H       
 264 H264         -18.2170    14.2238    13.3365 H       
 265 H265         -19.4429    15.4181    12.8477 H       
 266 H266         -18.1399    15.9165    10.7977 H       
 267 H267         -16.9139    14.7222    11.2866 H       
 268 H268         -18.6336    12.9365    11.2362 H       
 269 H269         -19.8595    14.1308    10.7473 H       
 270 H270         -18.5564    14.6292     8.6973 H       
 271 H271         -17.3305    13.4349     9.1862 H       
 272 H272         -19.0502    11.6491     9.1358 H       
 273 H273         -20.2761    12.8434     8.6469 H       
 274 H274         -18.9730    13.3418     6.5970 H       
 275 H275         -17.7471    12.1475     7.0858 H       
 276 H276         -19.4668    10.3617     7.0354 H       
 277 H277         -20.6927    11.5561     6.5466 H       
 278 H278         -18.1637    10.8602     4.9855 H       
 279 H279         -19.3896    12.0545     4.4966 H       
@<TRIPOS>BOND
   1    1    2 2
   2    1    4 1
   3    1   14 am
   4    3    4 1
   5    3  129 1
   6    3  130 1
   7    4    5 1
   8    4  131 1
   9    5    6 1
  10    5  132 1
  11    5  133 1
  12    6    7 1
  13    6  134 1
  14    6  135 1
  15    7    8 1
  16    7  136 1
  17    7  137 1
  18    8    9 1
  19    8  138 1
  20    9   10 2
  21    9   11 1
  22   10  139 1
  23   11  112 am
  24   11  140 1
  25   12   13 2
  26   12   15 1
  27   12   21 am
  28   14   15 1
  29   14  141 1
  30   15   16 1
  31   15  142 1
  32   16   17 1
  33   16   18 1
  34   16  143 1
  35   17  144 1
  36   17  145 1
  37   17  146 1
  38   18  147 1
  39   18  148 1
  40   18  149 1
  41   19   20 2
  42   19   22 1
  43   19   29 am
  44   21   22 1
  45   21  150 1
  46   22   23 1
  47   22  151 1
  48   23   24 1
  49   23  152 1
  50   23  153 1
  51   24   25 1
  52   24   26 1
  53   24  154 1
  54   25  155 1
  55   25  156 1
  56   25  157 1
  57   26  158 1
  58   26  159 1
  59   26  160 1
  60   27   28 2
  61   27   30 1
  62   27   34 am
  63   29   30 1
  64   29  161 1
  65   30   31 1
  66   30  162 1
  67   31  163 1
  68   31  164 1
  69   31  165 1
  70   32   33 2
  71   32   35 1
  72   32   41 am
  73   34   35 1
  74   34  166 1
  75   35   36 1
  76   35  167 1
  77   36   37 1
  78   36   38 1
  79   36  168 1
  80   37  169 1
  81   37  170 1
  82   37  171 1
  83   38  172 1
  84   39   40 2
  85   39   42 1
  86   39   50 am
  87   41   42 1
  88   41  173 1
  89   42   43 1
  90   42  174 1
  91   43   44 1
  92   43  175 1
  93   43  176 1
  94   44   45 1
  95   44  177 1
  96   44  178 1
  97   45   46 1
  98   45  179 1
  99   45  180 1
 100   46   47 1
 101   46  181 1
 102   46  182 1
 103   47  183 1
 104   47  184 1
 105   48   49 2
 106   48   51 1
 107   48   58 am
 108   50   51 1
 109   50  185 1
 110   51   52 1
 111   51  186 1
 112   52   53 1
 113   52  187 1
 114   52  188 1
 115   53   54 1
 116   53   55 1
 117   53  189 1
 118   54  190 1
 119   54  191 1
 120   54  192 1
 121   55  193 1
 122   55  194 1
 123   55  195 1
 124   56   57 2
 125   56   59 1
 126   56   69 am
 127   58   59 1
 128   58  196 1
 129   59   60 1
 130   59  197 1
 131   60   61 1
 132   60  198 1
 133   60  199 1
 134   61   62 1
 135   61  200 1
 136   61  201 1
 137   62   63 1
 138   62  202 1
 139   62  203 1
 140   63   64 1
 141   63  204 1
 142   64   65 2
 143   64   66 1
 144   65  205 1
 145   66  206 1
 146   66  207 1
 147   67   68 2
 148   67   70 1
 149   67   78 am
 150   69   70 1
 151   69  208 1
 152   70   71 1
 153   70  209 1
 154   71   72 1
 155   71  210 1
 156   71  211 1
 157   72   73 1
 158   72  212 1
 159   72  213 1
 160   73   74 2
 161   73   75 1
 162   75  214 1
 163   76   77 2
 164   76   79 1
 165   76   85 am
 166   78   79 1
 167   78  215 1
 168   79   80 1
 169   79  216 1
 170   80   81 1
 171   80   82 1
 172   80  217 1
 173   81  218 1
 174   81  219 1
 175   81  220 1
 176   82  221 1
 177   83   84 2
 178   83   86 1
 179   83   93 am
 180   85   86 1
 181   85  222 1
 182   86   87 1
 183   86  223 1
 184   87   88 1
 185   87  224 1
 186   87  225 1
 187   88   89 2
 188   88   90 am
 189   90  226 1
 190   90  227 1
 191   91   92 2
 192   91   94 1
 193   91   98 am
 194   93   94 1
 195   93  228 1
 196   94   95 1
 197   94  229 1
 198   95  230 1
 199   95  231 1
 200   95  232 1
 201   96   97 2
 202   96   99 1
 203   96  102 am
 204   98   99 1
 205   98  233 1
 206   99  234 1
 207   99  235 1
 208  100  101 2
 209  100  103 1
 210  100  111 1
 211  102  103 1
 212  102  236 1
 213  103  104 1
 214  103  237 1
 215  104  105 1
 216  104  238 1
 217  104  239 1
 218  105  106 1
 219  105  240 1
 220  105  241 1
 221  106  107 1
 222  106  242 1
 223  106  243 1
 224  107  108 1
 225  107  244 1
 226  108  109 2
 227  108  110 1
 228  109  245 1
 229  110  246 1
 230  110  247 1
 231  111  248 1
 232  112  113 2
 233  112  128 1
 234  114  115 1
 235  114  249 1
 236  114  250 1
 237  114  251 1
 238  115  116 1
 239  115  252 1
 240  115  253 1
 241  116  117 1
 242  116  254 1
 243  116  255 1
 244  117  118 1
 245  117  256 1
 246  117  257 1
 247  118  119 1
 248  118  258 1
 249  118  259 1
 250  119  120 1
 251  119  260 1
 252  119  261 1
 253  120  121 1
 254  120  262 1
 255  120  263 1
 256  121  122 1
 257  121  264 1
 258  121  265 1
 259  122  123 1
 260  122  266 1
 261  122  267 1
 262  123  124 1
 263  123  268 1
 264  123  269 1
 265  124  125 1
 266  124  270 1
 267  124  271 1
 268  125  126 1
 269  125  272 1
 270  125  273 1
 271  126  127 1
 272  126  274 1
 273  126  275 1
 274  127  128 1
 275  127  276 1
 276  127  277 1
 277  128  278 1
 278  128  279 1

#	End of record

