#	Name: ASD01881509
#	Creating user name:	WinNT
#	Creation time:	15. 06. 2019 19:42

#	Modifying user name:	WinNT
#	Modification time:	15. 06. 2019 19:42

#	Program:	/corina/corina34_cracker 3.40 0067  02.08.2006

@<TRIPOS>MOLECULE
ASD01881509
  57   61    0    0    0
SMALL
NO_CHARGES


@<TRIPOS>ATOM
   1 C1            -0.0168     1.3893     0.0097 C.ar    
   2 C2             0.0021    -0.0041     0.0020 C.ar    
   3 C3             1.2210    -0.6847    -0.0133 C.ar    
   4 C4             2.3987     0.0208    -0.0208 C.ar    
   5 C5             2.3876     1.4191    -0.0132 C.ar    
   6 C6             1.1658     2.0989     0.0022 C.ar    
   7 C7             3.8491    -0.3937    -0.0378 C.3     
   8 N8             4.6307     0.8480    -0.0391 N.am    
   9 C9             3.7844     1.8921    -0.0249 C.2     
  10 C10            6.0930     0.9355    -0.0539 C.3     
  11 C11            6.5796     0.9734    -1.4797 C.ar    
  12 C12            6.7309     2.1866    -2.1252 C.ar    
  13 C13            7.1768     2.2241    -3.4322 C.ar    
  14 C14            7.4727     1.0429    -4.0970 C.ar    
  15 C15            7.3200    -0.1732    -3.4470 C.ar    
  16 C16            6.8792    -0.2049    -2.1382 C.ar    
  17 O17            4.1223     3.0598    -0.0226 O.2     
  18 Cl18           1.1375     3.8347     0.0112 Cl      
  19 C19           -1.2726    -0.7640     0.0106 C.2     
  20 N20           -1.4006    -2.0653     0.0054 N.2     
  21 O21           -2.5749    -2.3687     0.0153 O.3     
  22 C22           -3.3321    -1.2673     0.0282 C.2     
  23 N23           -2.5192    -0.2404     0.0313 N.2     
  24 C24           -4.8382    -1.2166     0.0427 C.3     
  25 N25           -5.3407    -1.1936    -1.3376 N.3     
  26 C26           -6.7965    -1.3826    -1.3708 C.3     
  27 C27           -7.2641    -1.4986    -2.8234 C.3     
  28 C28           -6.8785    -0.2255    -3.5818 C.3     
  29 C29           -5.3631    -0.0259    -3.4908 C.3     
  30 C30           -4.9506     0.0474    -2.0189 C.3     
  31 F31           -7.2541    -0.3489    -4.9238 F       
  32 O32            7.9110     1.0770    -5.3829 O.3     
  33 C33            8.1964    -0.1776    -6.0046 C.3     
  34 F34            7.0389    -0.9631    -6.0227 F       
  35 F35            8.6328     0.0402    -7.3158 F       
  36 F36            9.1970    -0.8383    -5.2838 F       
  37 H37           -0.9602     1.9150     0.0170 H       
  38 H38            1.2374    -1.7645    -0.0189 H       
  39 H39            4.0811    -0.9815     0.8504 H       
  40 H40            4.0630    -0.9719    -0.9367 H       
  41 H41            6.4080     1.8427     0.4617 H       
  42 H42            6.5141     0.0659     0.4508 H       
  43 H43            6.5001     3.1059    -1.6074 H       
  44 H44            7.2945     3.1720    -3.9362 H       
  45 H45            7.5497    -1.0941    -3.9624 H       
  46 H46            6.7601    -1.1513    -1.6317 H       
  47 H47           -5.2264    -2.0963     0.5560 H       
  48 H48           -5.1665    -0.3174     0.5639 H       
  49 H49           -7.0569    -2.2934    -0.8317 H       
  50 H50           -7.2844    -0.5295    -0.8993 H       
  51 H51           -6.7872    -2.3597    -3.2916 H       
  52 H52           -8.3467    -1.6232    -2.8484 H       
  53 H53           -7.3861     0.6308    -3.1378 H       
  54 H54           -4.8563    -0.8638    -3.9695 H       
  55 H55           -5.0875     0.9017    -3.9926 H       
  56 H56           -5.4472     0.8938    -1.5443 H       
  57 H57           -3.8703     0.1753    -1.9504 H       
@<TRIPOS>BOND
   1    1    2 ar
   2    1    6 ar
   3    1   37 1
   4    2    3 ar
   5    2   19 1
   6    3    4 ar
   7    3   38 1
   8    4    5 ar
   9    4    7 1
  10    5    6 ar
  11    5    9 1
  12    6   18 1
  13    7    8 1
  14    7   39 1
  15    7   40 1
  16    8    9 am
  17    8   10 1
  18    9   17 2
  19   10   11 1
  20   10   41 1
  21   10   42 1
  22   11   12 ar
  23   11   16 ar
  24   12   13 ar
  25   12   43 1
  26   13   14 ar
  27   13   44 1
  28   14   32 1
  29   14   15 ar
  30   15   16 ar
  31   15   45 1
  32   16   46 1
  33   19   20 2
  34   19   23 1
  35   20   21 1
  36   21   22 1
  37   22   23 2
  38   22   24 1
  39   24   25 1
  40   24   47 1
  41   24   48 1
  42   25   26 1
  43   25   30 1
  44   26   27 1
  45   26   49 1
  46   26   50 1
  47   27   28 1
  48   27   51 1
  49   27   52 1
  50   28   29 1
  51   28   31 1
  52   28   53 1
  53   29   30 1
  54   29   54 1
  55   29   55 1
  56   30   56 1
  57   30   57 1
  58   32   33 1
  59   33   34 1
  60   33   35 1
  61   33   36 1

#	End of record

