#	Name: ASD03092942
#	Creating user name:	WinNT
#	Creation time:	15. 06. 2019 20:33

#	Modifying user name:	WinNT
#	Modification time:	15. 06. 2019 20:33

#	Program:	/corina/corina34_cracker 3.40 0067  02.08.2006

@<TRIPOS>MOLECULE
ASD03092942
  53   56    0    0    0
SMALL
NO_CHARGES


@<TRIPOS>ATOM
   1 F1             0.0266    -0.0059     0.0256 F       
   2 C2             0.0057     1.3449     0.0311 C.ar    
   3 C3            -1.2057     2.0170     0.0559 C.ar    
   4 C4            -1.2315     3.3964     0.0620 C.ar    
   5 C5            -0.0370     4.1137     0.0432 C.ar    
   6 C6             1.1791     3.4338     0.0183 C.ar    
   7 C7             1.1960     2.0542     0.0177 C.ar    
   8 C8            -0.0599     5.5975     0.0492 C.2     
   9 C9             1.0639     6.4702     0.0266 C.2     
  10 C10            0.5165     7.7065     0.0438 C.2     
  11 O11           -0.8133     7.5383     0.0738 O.3     
  12 N12           -1.1188     6.3685     0.0707 N.2     
  13 C13            1.2573     9.0188     0.0320 C.3     
  14 C14            0.8529     9.8216    -1.2065 C.3     
  15 C15            1.6335    11.1394    -1.2333 C.3     
  16 N16            1.4179    11.8427     0.0385 N.am    
  17 C17            1.6895    11.1304     1.2945 C.3     
  18 C18            0.9083     9.8127     1.2930 C.3     
  19 C19            0.9797    13.1172     0.0528 C.2     
  20 O20            0.8489    13.7268    -0.9910 O.2     
  21 N21            0.6864    13.7159     1.2241 N.am    
  22 C22            0.3182    15.1336     1.2501 C.3     
  23 C23           -1.1791    15.2769     0.9701 C.3     
  24 C24           -1.5637    16.7575     0.9973 C.3     
  25 C25           -1.2441    17.3422     2.3746 C.3     
  26 C26            0.2532    17.1990     2.6545 C.3     
  27 C27            0.6377    15.7184     2.6274 C.3     
  28 H28           -2.1311     1.4603     0.0700 H       
  29 H29           -2.1762     3.9195     0.0809 H       
  30 H30            2.1072     3.9859     0.0034 H       
  31 H31            2.1381     1.5264     0.0025 H       
  32 H32            2.1109     6.2064     0.0020 H       
  33 H33            2.3305     8.8297     0.0074 H       
  34 H34            1.0803     9.2457    -2.1036 H       
  35 H35           -0.2159    10.0325    -1.1703 H       
  36 H36            2.6960    10.9322    -1.3607 H       
  37 H37            1.2783    11.7579    -2.0576 H       
  38 H38            2.7566    10.9225     1.3733 H       
  39 H39            1.3713    11.7429     2.1382 H       
  40 H40           -0.1610    10.0237     1.3057 H       
  41 H41            1.1752     9.2305     2.1750 H       
  42 H42            0.7191    13.2081     2.0499 H       
  43 H43            0.8833    15.6698     0.4877 H       
  44 H44           -1.4068    14.8603    -0.0110 H       
  45 H45           -1.7443    14.7407     1.7325 H       
  46 H46           -0.9986    17.2937     0.2349 H       
  47 H47           -2.6304    16.8596     0.7978 H       
  48 H48           -1.5181    18.3971     2.3939 H       
  49 H49           -1.8093    16.8060     3.1370 H       
  50 H50            0.8183    17.7352     1.8921 H       
  51 H51            0.4808    17.6156     3.6357 H       
  52 H52            0.0726    15.1822     3.3898 H       
  53 H53            1.7045    15.6163     2.8268 H       
@<TRIPOS>BOND
   1    1    2 1
   2    2    7 ar
   3    2    3 ar
   4    3    4 ar
   5    3   28 1
   6    4    5 ar
   7    4   29 1
   8    5    6 ar
   9    5    8 1
  10    6    7 ar
  11    6   30 1
  12    7   31 1
  13    8   12 2
  14    8    9 1
  15    9   10 2
  16    9   32 1
  17   10   11 1
  18   10   13 1
  19   11   12 1
  20   13   18 1
  21   13   14 1
  22   13   33 1
  23   14   15 1
  24   14   34 1
  25   14   35 1
  26   15   16 1
  27   15   36 1
  28   15   37 1
  29   16   17 1
  30   16   19 am
  31   17   18 1
  32   17   38 1
  33   17   39 1
  34   18   40 1
  35   18   41 1
  36   19   20 2
  37   19   21 am
  38   21   22 1
  39   21   42 1
  40   22   27 1
  41   22   23 1
  42   22   43 1
  43   23   24 1
  44   23   44 1
  45   23   45 1
  46   24   25 1
  47   24   46 1
  48   24   47 1
  49   25   26 1
  50   25   48 1
  51   25   49 1
  52   26   27 1
  53   26   50 1
  54   26   51 1
  55   27   52 1
  56   27   53 1

#	End of record

