#	Name: ASD01820095
#	Creating user name:	WinNT
#	Creation time:	15. 06. 2019 19:36

#	Modifying user name:	WinNT
#	Modification time:	15. 06. 2019 19:36

#	Program:	/corina/corina34_cracker 3.40 0067  02.08.2006

@<TRIPOS>MOLECULE
ASD01820095
  38   43    0    0    0
SMALL
NO_CHARGES


@<TRIPOS>ATOM
   1 C1            -0.0168     1.3914     0.0097 C.ar    
   2 C2             0.0021    -0.0041     0.0020 C.ar    
   3 C3             1.2408    -0.6247     0.0173 C.ar    
   4 C4             2.4158     0.0985     0.0399 C.ar    
   5 C5             2.4129     1.4876     0.0326 C.ar    
   6 C6            -0.6741     3.5998    -0.2903 C.3     
   7 N7            -1.1141     2.2414     0.0720 N.am    
   8 C8             1.1839     2.1193     0.0021 C.ar    
   9 C9             0.8338     3.5610    -0.0882 C.3     
  10 C10           -2.9050     4.2819     0.6221 C.2     
  11 C11           -3.3277     3.0291     0.6430 C.2     
  12 C12           -2.3793     1.9230     0.4195 C.2     
  13 C13           -1.4828     4.6723     0.3655 C.3     
  14 C14            1.5637     4.3024    -1.2236 C.3     
  15 C15            2.0393     5.6233    -0.5421 C.3     
  16 N16            1.0917     5.7196     0.5880 N.am    
  17 C17            0.0753     4.1973     2.2027 C.3     
  18 C18            1.2261     4.3469     1.1831 C.3     
  19 C19            0.1216     6.3684     1.2259 C.2     
  20 C20           -0.8768     5.2881     1.6313 C.3     
  21 O21            0.0469     7.5599     1.4393 O.2     
  22 O22           -2.7248     0.7634     0.5434 O.2     
  23 H23           -0.9129    -0.5776    -0.0148 H       
  24 H24            1.2879    -1.7037     0.0117 H       
  25 H25            3.3588    -0.4272     0.0641 H       
  26 H26            3.3339     2.0513     0.0502 H       
  27 H27           -0.8430     3.6869    -1.3637 H       
  28 H28           -3.6254     5.0666     0.7999 H       
  29 H29           -4.3709     2.8157     0.8237 H       
  30 H30           -1.5291     5.4916    -0.3519 H       
  31 H31            2.4169     3.7224    -1.5754 H       
  32 H32            0.8794     4.5180    -2.0442 H       
  33 H33            3.0657     5.5335    -0.1865 H       
  34 H34            1.9328     6.4729    -1.2165 H       
  35 H35           -0.3759     3.2062     2.1560 H       
  36 H36            0.4014     4.4390     3.2143 H       
  37 H37            2.2117     4.1064     1.5817 H       
  38 H38           -1.6286     5.6400     2.3378 H       
@<TRIPOS>BOND
   1    1    2 ar
   2    1    8 ar
   3    1    7 1
   4    2    3 ar
   5    2   23 1
   6    3    4 ar
   7    3   24 1
   8    4    5 ar
   9    4   25 1
  10    5    8 ar
  11    5   26 1
  12    6    9 1
  13    6   13 1
  14    6    7 1
  15    6   27 1
  16    7   12 am
  17    8    9 1
  18    9   14 1
  19    9   18 1
  20   10   11 2
  21   10   13 1
  22   10   28 1
  23   11   12 1
  24   11   29 1
  25   12   22 2
  26   13   20 1
  27   13   30 1
  28   14   15 1
  29   14   31 1
  30   14   32 1
  31   15   16 1
  32   15   33 1
  33   15   34 1
  34   16   19 am
  35   16   18 1
  36   17   18 1
  37   17   20 1
  38   17   35 1
  39   17   36 1
  40   18   37 1
  41   19   20 1
  42   19   21 2
  43   20   38 1

#	End of record

