#	Name: ASD01840337
#	Creating user name:	WinNT
#	Creation time:	15. 06. 2019 19:37

#	Modifying user name:	WinNT
#	Modification time:	15. 06. 2019 19:37

#	Program:	/corina/corina34_cracker 3.40 0067  02.08.2006

@<TRIPOS>MOLECULE
ASD01840337
  45   48    0    0    0
SMALL
NO_CHARGES


@<TRIPOS>ATOM
   1 C1            -0.0184     1.5028     0.0103 C.3     
   2 C2             0.0021    -0.0041     0.0020 C.ar    
   3 N3             0.0054    -0.6482    -1.1469 N.ar    
   4 C4             0.0235    -1.9692    -1.2081 C.ar    
   5 C5             0.0308    -2.9041    -2.3925 C.3     
   6 N6             0.0524    -4.2770    -1.8781 N.am    
   7 C7             0.0582    -4.1831    -0.4146 C.3     
   8 C8             0.0397    -2.7214    -0.0509 C.ar    
   9 C9             0.0367    -2.0807     1.1789 C.ar    
  10 C10            0.0545    -2.8724     2.4611 C.3     
  11 C11            0.0228    -0.6937     1.2012 C.ar    
  12 Cl12           0.0254     0.1635     2.7108 Cl      
  13 C13            0.0639    -5.4086    -2.6101 C.2     
  14 O14            0.0813    -6.4881    -2.0576 O.2     
  15 C15            0.0552    -5.3326    -4.1152 C.3     
  16 C16            0.0713    -6.7474    -4.6974 C.3     
  17 C17           -1.3301    -7.3554    -4.8867 C.3     
  18 N18           -0.8275    -7.8606    -6.1834 N.3     
  19 C19            0.1868    -6.7845    -6.2320 C.3     
  20 C20           -1.7744    -7.6958    -7.1812 C.ar    
  21 C21           -1.5082    -8.1114    -8.4873 C.ar    
  22 C22           -2.4846    -7.9251    -9.4463 C.ar    
  23 N23           -3.6333    -7.3625    -9.0988 N.ar    
  24 C24           -3.8541    -6.9808    -7.8569 C.ar    
  25 N25           -2.9535    -7.1441    -6.9092 N.ar    
  26 H26            1.0042     1.8801     0.0026 H       
  27 H27           -0.5455     1.8639    -0.8728 H       
  28 H28           -0.5286     1.8543     0.9071 H       
  29 H29           -0.8664    -2.7483    -2.9915 H       
  30 H30            0.9174    -2.7235    -3.0002 H       
  31 H31           -0.8252    -4.6761    -0.0090 H       
  32 H32            0.9590    -4.6513    -0.0177 H       
  33 H33            1.0864    -3.0487     2.7650 H       
  34 H34           -0.4634    -2.3135     3.2405 H       
  35 H35           -0.4465    -3.8278     2.3051 H       
  36 H36           -0.8435    -4.8131    -4.4475 H       
  37 H37            0.9362    -4.7891    -4.4566 H       
  38 H38            0.7730    -7.4082    -4.1885 H       
  39 H39           -1.5677    -8.1425    -4.1711 H       
  40 H40           -2.1220    -6.6125    -4.9820 H       
  41 H41           -0.1613    -5.8746    -6.7208 H       
  42 H42            1.1613    -7.1155    -6.5912 H       
  43 H43           -0.5625    -8.5668    -8.7414 H       
  44 H44           -2.3140    -8.2339   -10.4671 H       
  45 H45           -4.8014    -6.5256    -7.6081 H       
@<TRIPOS>BOND
   1    1    2 1
   2    1   26 1
   3    1   27 1
   4    1   28 1
   5    2   11 ar
   6    2    3 ar
   7    3    4 ar
   8    4    8 ar
   9    4    5 1
  10    5    6 1
  11    5   29 1
  12    5   30 1
  13    6    7 1
  14    6   13 am
  15    7    8 1
  16    7   31 1
  17    7   32 1
  18    8    9 ar
  19    9   10 1
  20    9   11 ar
  21   10   33 1
  22   10   34 1
  23   10   35 1
  24   11   12 1
  25   13   14 2
  26   13   15 1
  27   15   16 1
  28   15   36 1
  29   15   37 1
  30   16   19 1
  31   16   17 1
  32   16   38 1
  33   17   18 1
  34   17   39 1
  35   17   40 1
  36   18   19 1
  37   18   20 1
  38   19   41 1
  39   19   42 1
  40   20   25 ar
  41   20   21 ar
  42   21   22 ar
  43   21   43 1
  44   22   23 ar
  45   22   44 1
  46   23   24 ar
  47   24   25 ar
  48   24   45 1

#	End of record

