#	Name: ASD04560180
#	Creating user name:	WinNT
#	Creation time:	15. 06. 2019 20:49

#	Modifying user name:	WinNT
#	Modification time:	15. 06. 2019 20:49

#	Program:	/corina/corina34_cracker 3.40 0067  02.08.2006

@<TRIPOS>MOLECULE
ASD04560180
  26   27    0    0    0
SMALL
NO_CHARGES


@<TRIPOS>ATOM
   1 C1            -0.0157     1.3632    -0.0077 C.ar    
   2 C2             0.0032    -0.0046    -0.0223 C.ar    
   3 C3             1.2279    -0.6718    -0.0398 C.ar    
   4 N4             2.3710     0.0016    -0.0419 N.ar    
   5 C5             2.3971     1.3178    -0.0282 C.ar    
   6 C6             1.2088     2.0502    -0.0108 C.ar    
   7 C7             1.2392     3.5246     0.0045 C.2     
   8 O8             0.1988     4.1541     0.0196 O.2     
   9 N9             2.4200     4.1743     0.0019 N.am    
  10 C10            2.4505     5.5701    -0.0966 C.ar    
  11 C11            3.4269     6.2934     0.5757 C.ar    
  12 C12            1.5401     7.6106    -0.9674 C.ar    
  13 C13            1.5079     6.2333    -0.8712 C.ar    
  14 S14            1.2573    -2.4335    -0.0586 S.3     
  15 C15            3.4555     7.6706     0.4768 C.ar    
  16 C16            2.5114     8.3303    -0.2920 C.ar    
  17 F17            2.5411     9.6776    -0.3873 F       
  18 H18           -0.9514     1.9025     0.0015 H       
  19 H19           -0.9215    -0.5626    -0.0200 H       
  20 H20            3.3452     1.8349    -0.0304 H       
  21 H21            3.2487     3.6745     0.0681 H       
  22 H22            4.1632     5.7793     1.1757 H       
  23 H23            0.8072     8.1268    -1.5697 H       
  24 H24            0.7504     5.6723    -1.3984 H       
  25 H25            1.2496    -2.6636    -1.4497 H       
  26 H26            4.2145     8.2335     0.9998 H       
@<TRIPOS>BOND
   1    1    2 ar
   2    1    6 ar
   3    1   18 1
   4    2    3 ar
   5    2   19 1
   6    3    4 ar
   7    3   14 1
   8    4    5 ar
   9    5    6 ar
  10    5   20 1
  11    6    7 1
  12    7    8 2
  13    7    9 am
  14    9   10 1
  15    9   21 1
  16   10   11 ar
  17   10   13 ar
  18   11   15 ar
  19   11   22 1
  20   12   13 ar
  21   12   16 ar
  22   12   23 1
  23   13   24 1
  24   14   25 1
  25   15   16 ar
  26   15   26 1
  27   16   17 1

#	End of record

