#	Name: ASD02039374
#	Creating user name:	WinNT
#	Creation time:	15. 06. 2019 20:18

#	Modifying user name:	WinNT
#	Modification time:	15. 06. 2019 20:18

#	Program:	/corina/corina34_cracker 3.40 0067  02.08.2006

@<TRIPOS>MOLECULE
ASD02039374
  48   51    0    0    0
SMALL
NO_CHARGES


@<TRIPOS>ATOM
   1 C1            -0.0386     0.8003    -0.3832 C.ar    
   2 C2             0.3501    -0.5309    -0.3386 C.ar    
   3 C3            -0.5976    -1.5207    -0.5238 C.ar    
   4 C4            -2.2750     0.0443    -0.7809 C.ar    
   5 C5            -1.3730     1.0919    -0.6080 C.ar    
   6 C6            -3.7080     0.3399    -1.0232 C.ar    
   7 C7             0.9683     1.9039    -0.1849 C.3     
   8 N8             1.5351     2.2863    -1.4806 N.am    
   9 C9             0.9008     3.3411    -2.2751 C.3     
  10 C10            2.6402     1.6676    -1.9417 C.2     
  11 C11            3.1634     1.9945    -3.2795 C.2     
  12 C12            4.1977     1.3721    -3.9151 C.2     
  13 N13            2.7004     2.9662    -4.1068 N.2     
  14 C14            3.4068     2.9600    -5.2002 C.2     
  15 N15            4.3459     1.9821    -5.1145 N.pl3   
  16 O16            3.2054     0.8394    -1.2533 O.2     
  17 C17            5.3411     1.6481    -6.1364 C.3     
  18 C18           -4.6170    -0.7023    -1.1973 C.ar    
  19 N19           -1.8605    -1.2157    -0.7417 N.ar    
  20 C20           -4.1507     1.6607    -1.0718 C.ar    
  21 C21           -5.4846     1.9311    -1.2969 C.ar    
  22 C22           -6.3839     0.8920    -1.4746 C.ar    
  23 C23           -5.9491    -0.4226    -1.4219 C.ar    
  24 C24            1.6069     4.6726    -2.0114 C.3     
  25 C25            1.1662     5.8819    -2.8387 C.3     
  26 C26            0.7890     5.7889    -1.3588 C.3     
  27 F27           -7.6894     1.1614    -1.6944 F       
  28 H28            1.3831    -0.7915    -0.1613 H       
  29 H29           -0.2983    -2.5579    -0.4897 H       
  30 H30           -1.7116     2.1169    -0.6402 H       
  31 H31            0.4777     2.7666     0.2659 H       
  32 H32            1.7653     1.5549     0.4716 H       
  33 H33            0.9759     3.0934    -3.3339 H       
  34 H34           -0.1493     3.4251    -1.9952 H       
  35 H35            4.7859     0.5503    -3.5342 H       
  36 H36            3.2668     3.6231    -6.0411 H       
  37 H37            6.2449     2.2337    -5.9685 H       
  38 H38            5.5800     0.5863    -6.0777 H       
  39 H39            4.9388     1.8759    -7.1235 H       
  40 H40           -4.2790    -1.7272    -1.1567 H       
  41 H41           -3.4505     2.4712    -0.9330 H       
  42 H42           -5.8285     2.9542    -1.3344 H       
  43 H43           -6.6534    -1.2295    -1.5610 H       
  44 H44            2.6620     4.6010    -1.7474 H       
  45 H45            1.9313     6.6060    -3.1185 H       
  46 H46            0.3732     5.7289    -3.5707 H       
  47 H47           -0.2521     5.5747    -1.1173 H       
  48 H48            1.3060     6.4519    -0.6651 H       
@<TRIPOS>BOND
   1    1    2 ar
   2    1    7 1
   3    1    5 ar
   4    2    3 ar
   5    2   28 1
   6    3   19 ar
   7    3   29 1
   8    4    5 ar
   9    4    6 1
  10    4   19 ar
  11    5   30 1
  12    6   18 ar
  13    6   20 ar
  14    7    8 1
  15    7   31 1
  16    7   32 1
  17    8    9 1
  18    8   10 am
  19    9   24 1
  20    9   33 1
  21    9   34 1
  22   10   11 1
  23   10   16 2
  24   11   12 2
  25   11   13 1
  26   12   15 1
  27   12   35 1
  28   13   14 2
  29   14   15 1
  30   14   36 1
  31   15   17 1
  32   17   37 1
  33   17   38 1
  34   17   39 1
  35   18   23 ar
  36   18   40 1
  37   20   21 ar
  38   20   41 1
  39   21   22 ar
  40   21   42 1
  41   22   23 ar
  42   22   27 1
  43   23   43 1
  44   24   25 1
  45   24   26 1
  46   24   44 1
  47   25   26 1
  48   25   45 1
  49   25   46 1
  50   26   47 1
  51   26   48 1

#	End of record

