#	Name: ASD01100006
#	Creating user name:	WinNT
#	Creation time:	15. 06. 2019 18:58

#	Modifying user name:	WinNT
#	Modification time:	15. 06. 2019 18:58

#	Program:	/corina/corina34_cracker 3.40 0067  02.08.2006

@<TRIPOS>MOLECULE
ASD01100006
  37   38    0    0    0
SMALL
NO_CHARGES


@<TRIPOS>ATOM
   1 C1            -0.0840     1.4024    -0.2910 C.ar    
   2 C2            -0.0484     0.0196    -0.3151 C.ar    
   3 C3             1.1661    -0.6415    -0.2700 C.ar    
   4 C4             2.3431     0.0798    -0.2008 C.ar    
   5 C5             2.3069     1.4616    -0.1767 C.ar    
   6 C6             1.0936     2.1227    -0.2218 C.ar    
   7 C7             3.5905     2.2475    -0.1008 C.3     
   8 C8             3.7064     3.1384    -1.3107 C.2     
   9 N9             4.3921     2.7196    -2.3927 N.am    
  10 C10            3.5890     3.1054     1.1660 C.3     
  11 C11            3.3510     2.2132     2.3860 C.3     
  12 C12            4.9395     3.8108     1.3058 C.3     
  13 Cl13          -1.5272    -0.8857    -0.4015 Cl      
  14 O14            3.1825     4.2322    -1.3107 O.2     
  15 C15            4.4003     3.4884    -3.5508 C.2     
  16 N16            5.0254     3.1785    -4.6432 N.2     
  17 C17            4.9248     4.0259    -5.6501 C.2     
  18 C18            4.1794     5.1032    -5.3963 C.2     
  19 S19            3.5815     4.9767    -3.7439 S.3     
  20 C20            5.1288     1.4541    -2.3484 C.3     
  21 H21           -1.0316     1.9191    -0.3308 H       
  22 H22            1.1945    -1.7209    -0.2884 H       
  23 H23            3.2912    -0.4361    -0.1651 H       
  24 H24            1.0659     3.2022    -0.2030 H       
  25 H25            4.4361     1.5603    -0.0732 H       
  26 H26            2.7955     3.8497     1.0999 H       
  27 H27            4.1445     1.4689     2.4521 H       
  28 H28            3.3499     2.8244     3.2885 H       
  29 H29            2.3889     1.7107     2.2864 H       
  30 H30            5.0695     4.5131     0.4825 H       
  31 H31            4.9712     4.3506     2.2523 H       
  32 H32            5.7399     3.0712     1.2824 H       
  33 H33            5.4069     3.8609    -6.6024 H       
  34 H34            3.9755     5.9101    -6.0846 H       
  35 H35            4.5019     0.6546    -2.7434 H       
  36 H36            6.0328     1.5386    -2.9516 H       
  37 H37            5.4000     1.2274    -1.3173 H       
@<TRIPOS>BOND
   1    1    2 ar
   2    1    6 ar
   3    1   21 1
   4    2    3 ar
   5    2   13 1
   6    3    4 ar
   7    3   22 1
   8    4    5 ar
   9    4   23 1
  10    5    6 ar
  11    5    7 1
  12    6   24 1
  13    7    8 1
  14    7   10 1
  15    7   25 1
  16    8    9 am
  17    8   14 2
  18    9   15 1
  19    9   20 1
  20   10   11 1
  21   10   12 1
  22   10   26 1
  23   11   27 1
  24   11   28 1
  25   11   29 1
  26   12   30 1
  27   12   31 1
  28   12   32 1
  29   15   16 2
  30   15   19 1
  31   16   17 1
  32   17   18 2
  33   17   33 1
  34   18   19 1
  35   18   34 1
  36   20   35 1
  37   20   36 1
  38   20   37 1

#	End of record

