#	Name: ASD05790004
#	Creating user name:	WinNT
#	Creation time:	15. 06. 2019 21:03

#	Modifying user name:	WinNT
#	Modification time:	15. 06. 2019 21:03

#	Program:	/corina/corina34_cracker 3.40 0067  02.08.2006

@<TRIPOS>MOLECULE
ASD05790004
  45   48    0    0    0
SMALL
NO_CHARGES


@<TRIPOS>ATOM
   1 C1            -0.1753     1.4734    -0.5693 C.2     
   2 C2            -0.1532    -0.0033    -0.5732 C.ar    
   3 C3             0.8985    -0.6869    -1.1874 C.ar    
   4 C4             0.9141    -2.0651    -1.1881 C.ar    
   5 C5            -0.1118    -2.7729    -0.5804 C.ar    
   6 C6            -1.1583    -2.0993     0.0309 C.ar    
   7 C7            -1.1810    -0.7212     0.0425 C.ar    
   8 O8             0.7230     2.0962    -1.1015 O.2     
   9 N9            -1.1942     2.1306     0.0193 N.am    
  10 C10           -1.1619     3.5230     0.1191 C.ar    
  11 C11           -2.3411     4.2532     0.0191 C.ar    
  12 C12           -2.3127     5.6271     0.1171 C.ar    
  13 C13           -1.0980     6.2863     0.3177 C.ar    
  14 C14            0.0844     5.5500     0.4183 C.ar    
  15 C15            0.0486     4.1760     0.3242 C.ar    
  16 O16           -2.1301     8.5744     0.3426 O.3     
  17 C17           -1.0638     7.7595     0.4229 C.2     
  18 N18            0.0116     8.4863     0.6103 N.2     
  19 C19           -0.3498     9.7857     0.6534 C.2     
  20 C20           -1.6951     9.8415     0.4853 C.2     
  21 C21           -2.5434    11.0868     0.4629 C.3     
  22 F22           -2.6400    11.5617    -0.8495 F       
  23 F23           -3.8220    10.7889     0.9463 F       
  24 F24           -1.9557    12.0659     1.2711 F       
  25 C25            0.5585    10.9428     0.8490 C.ar    
  26 C26            1.6700    10.8264     1.6812 C.ar    
  27 C27            2.5117    11.9057     1.8591 C.ar    
  28 C28            2.2533    13.1014     1.2135 C.ar    
  29 C29            1.1513    13.2225     0.3862 C.ar    
  30 C30            0.3061    12.1480     0.1966 C.ar    
  31 F31           -0.0918    -4.1237    -0.5843 F       
  32 H32            1.6978    -0.1366    -1.6613 H       
  33 H33            1.7266    -2.5948    -1.6631 H       
  34 H34           -1.9550    -2.6555     0.5024 H       
  35 H35           -1.9943    -0.1975     0.5228 H       
  36 H36           -1.9499     1.6363     0.3736 H       
  37 H37           -3.2802     3.7428    -0.1361 H       
  38 H38           -3.2288     6.1937     0.0386 H       
  39 H39            1.0255     6.0569     0.5730 H       
  40 H40            0.9621     3.6057     0.4056 H       
  41 H41            1.8724     9.8935     2.1863 H       
  42 H42            3.3735    11.8165     2.5038 H       
  43 H43            2.9141    13.9436     1.3561 H       
  44 H44            0.9540    14.1585    -0.1151 H       
  45 H45           -0.5515    12.2423    -0.4530 H       
@<TRIPOS>BOND
   1    1    2 1
   2    1    8 2
   3    1    9 am
   4    2    3 ar
   5    2    7 ar
   6    3    4 ar
   7    3   32 1
   8    4    5 ar
   9    4   33 1
  10    5    6 ar
  11    5   31 1
  12    6    7 ar
  13    6   34 1
  14    7   35 1
  15    9   10 1
  16    9   36 1
  17   10   11 ar
  18   10   15 ar
  19   11   12 ar
  20   11   37 1
  21   12   13 ar
  22   12   38 1
  23   13   14 ar
  24   13   17 1
  25   14   15 ar
  26   14   39 1
  27   15   40 1
  28   16   17 1
  29   16   20 1
  30   17   18 2
  31   18   19 1
  32   19   20 2
  33   19   25 1
  34   20   21 1
  35   21   22 1
  36   21   23 1
  37   21   24 1
  38   25   26 ar
  39   25   30 ar
  40   26   27 ar
  41   26   41 1
  42   27   28 ar
  43   27   42 1
  44   28   29 ar
  45   28   43 1
  46   29   30 ar
  47   29   44 1
  48   30   45 1

#	End of record

