#	Name: ASD01001168
#	Creating user name:	WinNT
#	Creation time:	15. 06. 2019 18:55

#	Modifying user name:	WinNT
#	Modification time:	15. 06. 2019 18:55

#	Program:	/corina/corina34_cracker 3.40 0067  02.08.2006

@<TRIPOS>MOLECULE
ASD01001168
  51   54    0    0    0
SMALL
NO_CHARGES


@<TRIPOS>ATOM
   1 C1            -0.0167     1.3781     0.0096 C.ar    
   2 C2             0.0021    -0.0041     0.0020 C.ar    
   3 C3             1.1709     2.0855     0.0021 C.ar    
   4 C4             1.2084    -0.6789    -0.0132 C.ar    
   5 C5             2.3773     1.4107    -0.0131 C.ar    
   6 C6             2.3960     0.0285    -0.0212 C.ar    
   7 C7             1.2289    -2.1857    -0.0205 C.3     
   8 C8             1.4719    -2.6948    -1.4441 C.3     
   9 N9             2.3308    -2.6734     0.8217 N.pl3   
  10 C10            0.4277    -2.1180    -2.3961 C.3     
  11 C11            1.4164    -4.2206    -1.4477 C.3     
  12 C12            2.7561    -3.9991     0.6811 C.ar    
  13 C13           -0.9551    -2.6694    -2.0361 C.3     
  14 C14            2.3440    -4.7718    -0.3934 C.ar    
  15 O15            0.0866    -4.6612    -1.1619 O.3     
  16 C16            3.6063    -4.5407     1.6393 C.ar    
  17 C17           -0.9028    -4.1996    -2.0820 C.3     
  18 C18            2.7864    -6.0781    -0.5084 C.ar    
  19 C19            4.0421    -5.8451     1.5185 C.ar    
  20 C20            3.6325    -6.6131     0.4442 C.ar    
  21 C21            4.9639    -6.4314     2.5566 C.3     
  22 C22            4.2796    -6.3959     3.9246 C.3     
  23 C23            5.2918    -7.8797     2.1879 C.3     
  24 C24            6.2560    -5.6139     2.6113 C.3     
  25 H25           -0.9592     1.9054     0.0170 H       
  26 H26           -0.9258    -0.5567     0.0083 H       
  27 H27            1.1563     3.1654     0.0077 H       
  28 H28            3.3051     1.9634    -0.0197 H       
  29 H29            3.3385    -0.4987    -0.0327 H       
  30 H30            0.2794    -2.5699     0.3524 H       
  31 H31            2.4648    -2.3857    -1.7708 H       
  32 H32            2.7566    -2.0852     1.4648 H       
  33 H33            0.4189    -1.0314    -2.3101 H       
  34 H34            0.6752    -2.3988    -3.4198 H       
  35 H35            1.7181    -4.5924    -2.4269 H       
  36 H36           -1.2287    -2.3431    -1.0327 H       
  37 H37           -1.6911    -2.3072    -2.7538 H       
  38 H38            3.9261    -3.9404     2.4782 H       
  39 H39           -1.8756    -4.6060    -1.8054 H       
  40 H40           -0.6437    -4.5253    -3.0895 H       
  41 H41            2.4688    -6.6818    -1.3457 H       
  42 H42            3.9746    -7.6331     0.3493 H       
  43 H43            3.3591    -6.9782     3.8857 H       
  44 H44            4.9463    -6.8199     4.6755 H       
  45 H45            4.0460    -5.3641     4.1873 H       
  46 H46            5.7792    -7.9050     1.2133 H       
  47 H47            5.9585    -8.3037     2.9387 H       
  48 H48            4.3712    -8.4620     2.1489 H       
  49 H49            6.0224    -4.5822     2.8740 H       
  50 H50            6.9227    -6.0380     3.3621 H       
  51 H51            6.7435    -5.6393     1.6367 H       
@<TRIPOS>BOND
   1    1    2 ar
   2    1    3 ar
   3    1   25 1
   4    2    4 ar
   5    2   26 1
   6    3    5 ar
   7    3   27 1
   8    4    6 ar
   9    4    7 1
  10    5    6 ar
  11    5   28 1
  12    6   29 1
  13    7    8 1
  14    7    9 1
  15    7   30 1
  16    8   10 1
  17    8   11 1
  18    8   31 1
  19    9   12 1
  20    9   32 1
  21   10   13 1
  22   10   33 1
  23   10   34 1
  24   11   14 1
  25   11   15 1
  26   11   35 1
  27   12   14 ar
  28   12   16 ar
  29   13   17 1
  30   13   36 1
  31   13   37 1
  32   14   18 ar
  33   15   17 1
  34   16   19 ar
  35   16   38 1
  36   17   39 1
  37   17   40 1
  38   18   20 ar
  39   18   41 1
  40   19   21 1
  41   19   20 ar
  42   20   42 1
  43   21   22 1
  44   21   23 1
  45   21   24 1
  46   22   43 1
  47   22   44 1
  48   22   45 1
  49   23   46 1
  50   23   47 1
  51   23   48 1
  52   24   49 1
  53   24   50 1
  54   24   51 1

#	End of record

