#	Name: ASD01901441
#	Creating user name:	WinNT
#	Creation time:	15. 06. 2019 19:53

#	Modifying user name:	WinNT
#	Modification time:	15. 06. 2019 19:53

#	Program:	/corina/corina34_cracker 3.40 0067  02.08.2006

@<TRIPOS>MOLECULE
ASD01901441
  42   45    0    0    0
SMALL
NO_CHARGES


@<TRIPOS>ATOM
   1 C1            -0.0169     1.3956     0.0097 C.ar    
   2 C2             1.1709     2.1008     0.0022 C.ar    
   3 C3             2.3883     1.4151    -0.0131 C.ar    
   4 C4             2.4027     0.0175    -0.0208 C.ar    
   5 C5             1.2186    -0.6849    -0.0137 C.ar    
   6 C6             0.0021    -0.0041     0.0020 C.ar    
   7 C7            -1.2716    -0.7625     0.0101 C.2     
   8 N8            -3.1817    -1.5286    -1.1478 N.2     
   9 C9            -2.0567    -0.8569    -1.1604 C.2     
  10 C10           -1.7007    -1.3858     1.1497 C.2     
  11 N11           -2.8766    -2.0747     1.1223 N.pl3   
  12 C12           -3.6128    -2.1379    -0.0329 C.2     
  13 C13           -3.5562    -2.7860     2.0744 C.2     
  14 C14           -4.6761    -3.2615     1.4900 C.2     
  15 N15           -4.6963    -2.8597     0.2156 N.2     
  16 C16           -5.7290    -4.1040     2.1628 C.3     
  17 O17           -5.3616    -4.3269     3.5256 O.3     
  18 C18           -6.2089    -5.0731     4.2779 C.ar    
  19 C19           -5.9091    -5.3197     5.6113 C.ar    
  20 N20           -7.3154    -5.5543     3.7357 N.ar    
  21 C21           -8.1663    -6.2843     4.4312 C.ar    
  22 C22           -7.9291    -6.5736     5.7604 C.ar    
  23 C23           -6.7819    -6.0826     6.3679 C.ar    
  24 C24            3.6208     2.1440    -0.0215 C.1     
  25 O25           -1.2022     2.0597     0.0303 O.3     
  26 C26           -1.1458     3.4876     0.0370 C.3     
  27 N27            4.5986     2.7223    -0.0281 N.1     
  28 H28            1.1586     3.1808     0.0077 H       
  29 H29            3.3439    -0.5121    -0.0326 H       
  30 H30            1.2322    -1.7648    -0.0200 H       
  31 H31           -1.7287    -0.3735    -2.0688 H       
  32 H32           -1.1168    -1.3331     2.0567 H       
  33 H33           -3.2531    -2.9382     3.0998 H       
  34 H34           -6.6875    -3.5864     2.1249 H       
  35 H35           -5.8123    -5.0611     1.6478 H       
  36 H36           -5.0069    -4.9220     6.0520 H       
  37 H37           -9.0598    -6.6601     3.9550 H       
  38 H38           -8.6309    -7.1720     6.3225 H       
  39 H39           -6.5751    -6.2905     7.4073 H       
  40 H40           -2.1582     3.8911     0.0537 H       
  41 H41           -0.6053     3.8256     0.9211 H       
  42 H42           -0.6309     3.8351    -0.8586 H       
@<TRIPOS>BOND
   1    1    6 ar
   2    1    2 ar
   3    1   25 1
   4    2    3 ar
   5    2   28 1
   6    3    4 ar
   7    3   24 1
   8    4    5 ar
   9    4   29 1
  10    5    6 ar
  11    5   30 1
  12    6    7 1
  13    7   10 2
  14    7    9 1
  15    8    9 2
  16    8   12 1
  17    9   31 1
  18   10   11 1
  19   10   32 1
  20   11   13 1
  21   11   12 1
  22   12   15 2
  23   13   14 2
  24   13   33 1
  25   14   15 1
  26   14   16 1
  27   16   17 1
  28   16   34 1
  29   16   35 1
  30   17   18 1
  31   18   20 ar
  32   18   19 ar
  33   19   23 ar
  34   19   36 1
  35   20   21 ar
  36   21   22 ar
  37   21   37 1
  38   22   23 ar
  39   22   38 1
  40   23   39 1
  41   24   27 3
  42   25   26 1
  43   26   40 1
  44   26   41 1
  45   26   42 1

#	End of record

