#	Name: ASD01151026
#	Creating user name:	WinNT
#	Creation time:	15. 06. 2019 19:05

#	Modifying user name:	WinNT
#	Modification time:	15. 06. 2019 19:05

#	Program:	/corina/corina34_cracker 3.40 0067  02.08.2006

@<TRIPOS>MOLECULE
ASD01151026
  59   61    0    0    0
SMALL
NO_CHARGES


@<TRIPOS>ATOM
   1 C1            -0.0167     1.3830     0.0096 C.2     
   2 C2             0.0021    -0.0041     0.0020 C.2     
   3 N3            -1.2690    -0.4211     0.0127 N.2     
   4 C4            -2.0743     0.6088     0.0264 C.2     
   5 N5            -1.3559     1.7454     0.0305 N.pl3   
   6 C6            -3.5793     0.5335     0.0414 C.3     
   7 C7            -1.8875     3.1105     0.0454 C.3     
   8 C8             1.1019     2.2512     0.0036 C.2     
   9 O9             0.9184     3.5883     0.0131 O.3     
  10 O10            2.2287     1.7917    -0.0101 O.2     
  11 C11            2.0915     4.4042     0.0062 C.3     
  12 C12            1.6867     5.8796     0.0186 C.3     
  13 N13            1.1344    -0.8127    -0.0138 N.am    
  14 C14           -4.0740     0.5009     1.4888 C.3     
  15 C15            1.0045    -2.1541    -0.0197 C.2     
  16 C16            2.2308    -3.0299    -0.0369 C.3     
  17 O17           -0.0993    -2.6565    -0.0112 O.2     
  18 C18           -2.0621     3.5740     1.4930 C.3     
  19 C19           -0.6921     3.6658     2.1679 C.3     
  20 C20           -2.7325     4.9492     1.5108 C.3     
  21 O21            1.8446    -4.4039     0.0771 O.3     
  22 C22            2.7949    -5.3327    -0.2172 C.ar    
  23 C23            3.9331    -4.9834    -0.9341 C.ar    
  24 O24            4.1264    -3.7031    -1.3537 O.3     
  25 C25            2.9771    -2.8494    -1.3657 C.3     
  26 C26            2.6207    -6.6424     0.2050 C.ar    
  27 C27            3.5758    -7.5972    -0.0880 C.ar    
  28 C28            4.7072    -7.2501    -0.8027 C.ar    
  29 C29            4.8871    -5.9469    -1.2261 C.ar    
  30 C30           -5.6020     0.4244     1.5040 C.3     
  31 H31           -3.9919     1.4067    -0.4640 H       
  32 H32           -3.9030    -0.3710    -0.4737 H       
  33 H33           -1.1937     3.7762    -0.4681 H       
  34 H34           -2.8523     3.1302    -0.4613 H       
  35 H35            2.6919     4.1847     0.8891 H       
  36 H36            2.6744     4.1949    -0.8907 H       
  37 H37            2.5816     6.5020     0.0134 H       
  38 H38            1.0863     6.0991    -0.8643 H       
  39 H39            1.1038     6.0889     0.9156 H       
  40 H40            2.0172    -0.4109    -0.0207 H       
  41 H41           -3.6615    -0.3723     1.9942 H       
  42 H42           -3.7504     1.4054     2.0039 H       
  43 H43            2.8854    -2.7619     0.7924 H       
  44 H44           -2.6849     2.8592     2.0308 H       
  45 H45           -0.8165     3.9960     3.1993 H       
  46 H46           -0.2145     2.6861     2.1552 H       
  47 H47           -0.0693     4.3806     1.6302 H       
  48 H48           -3.7086     4.8838     1.0300 H       
  49 H49           -2.8570     5.2794     2.5421 H       
  50 H50           -2.1097     5.6640     0.9731 H       
  51 H51            2.3241    -3.1237    -2.1942 H       
  52 H52            3.2915    -1.8112    -1.4729 H       
  53 H53            1.7378    -6.9162     0.7635 H       
  54 H54            3.4383    -8.6163     0.2422 H       
  55 H55            5.4518    -7.9985    -1.0303 H       
  56 H56            5.7717    -5.6784    -1.7845 H       
  57 H57           -5.9544     0.4012     2.5352 H       
  58 H58           -6.0146     1.2976     0.9986 H       
  59 H59           -5.9257    -0.4801     0.9890 H       
@<TRIPOS>BOND
   1    1    2 2
   2    1    8 1
   3    1    5 1
   4    2    3 1
   5    2   13 1
   6    3    4 2
   7    4    5 1
   8    4    6 1
   9    5    7 1
  10    6   14 1
  11    6   31 1
  12    6   32 1
  13    7   18 1
  14    7   33 1
  15    7   34 1
  16    8    9 1
  17    8   10 2
  18    9   11 1
  19   11   12 1
  20   11   35 1
  21   11   36 1
  22   12   37 1
  23   12   38 1
  24   12   39 1
  25   13   15 am
  26   13   40 1
  27   14   30 1
  28   14   41 1
  29   14   42 1
  30   15   16 1
  31   15   17 2
  32   16   21 1
  33   16   25 1
  34   16   43 1
  35   18   19 1
  36   18   20 1
  37   18   44 1
  38   19   45 1
  39   19   46 1
  40   19   47 1
  41   20   48 1
  42   20   49 1
  43   20   50 1
  44   21   22 1
  45   22   23 ar
  46   22   26 ar
  47   23   24 1
  48   23   29 ar
  49   24   25 1
  50   25   51 1
  51   25   52 1
  52   26   27 ar
  53   26   53 1
  54   27   28 ar
  55   27   54 1
  56   28   29 ar
  57   28   55 1
  58   29   56 1
  59   30   57 1
  60   30   58 1
  61   30   59 1

#	End of record

