#	Name: ASD01901617
#	Creating user name:	WinNT
#	Creation time:	15. 06. 2019 19:54

#	Modifying user name:	WinNT
#	Modification time:	15. 06. 2019 19:54

#	Program:	/corina/corina34_cracker 3.40 0067  02.08.2006

@<TRIPOS>MOLECULE
ASD01901617
  46   50    0    0    0
SMALL
NO_CHARGES


@<TRIPOS>ATOM
   1 F1             1.1594    -0.8480     2.2913 F       
   2 C2             0.8280     0.2141     1.4431 C.3     
   3 C3            -0.3599     0.9834     2.0275 C.3     
   4 C4            -0.6777     2.1787     1.1247 C.3     
   5 C5             0.5641     3.0649     1.0040 C.3     
   6 N6             1.6718     2.2832     0.4397 N.3     
   7 C7             2.0262     1.1572     1.3131 C.3     
   8 C8             2.7722     3.0870     0.1953 C.ar    
   9 N9             3.0729     4.0683     1.0250 N.ar    
  10 C10            4.1153     4.8685     0.8401 C.ar    
  11 C11            4.9496     4.7296    -0.2248 C.ar    
  12 C12            4.6966     3.7037    -1.1583 C.ar    
  13 C13            5.5115     3.5000    -2.2776 C.ar    
  14 C14            5.2113     2.4774    -3.1555 C.ar    
  15 N15            6.0184     2.2678    -4.2733 N.pl3   
  16 C16            5.4618     1.7637    -5.4530 C.2     
  17 N17            4.1925     1.5481    -5.6752 N.2     
  18 N18            4.0115     1.0409    -6.9661 N.pl3   
  19 H19            3.1588     0.8029    -7.3624 H       
  20 C20            5.2307     0.9345    -7.5814 C.ar    
  21 C21            5.6446     0.5006    -8.8404 C.ar    
  22 C22            6.9944     0.5303    -9.1306 C.ar    
  23 C23            7.8927     0.9853    -8.1741 C.ar    
  24 N24            7.4863     1.3907    -6.9925 N.ar    
  25 C25            6.1967     1.3889    -6.6634 C.ar    
  26 C26            4.1051     1.6490    -2.9343 C.ar    
  27 C27            3.3000     1.8302    -1.8520 C.ar    
  28 C28            3.5805     2.8562    -0.9394 C.ar    
  29 H29            0.5625    -0.1746     0.4600 H       
  30 H30           -1.2282     0.3267     2.0814 H       
  31 H31           -0.1079     1.3385     3.0267 H       
  32 H32           -0.9673     1.8215     0.1365 H       
  33 H33           -1.4952     2.7549     1.5581 H       
  34 H34            0.3455     3.9093     0.3503 H       
  35 H35            0.8450     3.4329     1.9908 H       
  36 H36            2.3002     1.5341     2.2984 H       
  37 H37            2.8694     0.6161     0.8840 H       
  38 H38            4.3066     5.6537     1.5565 H       
  39 H39            5.7914     5.3939    -0.3535 H       
  40 H40            6.3663     4.1363    -2.4530 H       
  41 H41            6.9659     2.4715    -4.2325 H       
  42 H42            4.9285     0.1504    -9.5690 H       
  43 H43            7.3496     0.2012   -10.0959 H       
  44 H44            8.9472     1.0060    -8.4065 H       
  45 H45            3.8870     0.8546    -3.6327 H       
  46 H46            2.4500     1.1828    -1.6948 H       
@<TRIPOS>BOND
   1    1    2 1
   2    2    7 1
   3    2    3 1
   4    2   29 1
   5    3    4 1
   6    3   30 1
   7    3   31 1
   8    4    5 1
   9    4   32 1
  10    4   33 1
  11    5    6 1
  12    5   34 1
  13    5   35 1
  14    6    7 1
  15    6    8 1
  16    7   36 1
  17    7   37 1
  18    8   28 ar
  19    8    9 ar
  20    9   10 ar
  21   10   11 ar
  22   10   38 1
  23   11   12 ar
  24   11   39 1
  25   12   28 ar
  26   12   13 ar
  27   13   14 ar
  28   13   40 1
  29   14   15 1
  30   14   26 ar
  31   15   16 1
  32   15   41 1
  33   16   25 1
  34   16   17 2
  35   17   18 1
  36   18   19 1
  37   18   20 1
  38   20   25 ar
  39   20   21 ar
  40   21   22 ar
  41   21   42 1
  42   22   23 ar
  43   22   43 1
  44   23   24 ar
  45   23   44 1
  46   24   25 ar
  47   26   27 ar
  48   26   45 1
  49   27   28 ar
  50   27   46 1

#	End of record

