#	Name: ASD04591018
#	Creating user name:	WinNT
#	Creation time:	15. 06. 2019 20:51

#	Modifying user name:	WinNT
#	Modification time:	15. 06. 2019 20:51

#	Program:	/corina/corina34_cracker 3.40 0067  02.08.2006

@<TRIPOS>MOLECULE
ASD04591018
  58   63    0    0    0
SMALL
NO_CHARGES


@<TRIPOS>ATOM
   1 N1            -0.0151     1.3220     0.0090 N.ar    
   2 C2             0.0024    -0.0046     0.0083 C.ar    
   3 N3             1.1301    -0.6974     0.0061 N.ar    
   4 C4             2.3056    -0.0762     0.0045 C.ar    
   5 C5             2.3202     1.3321     0.0053 C.ar    
   6 C6             1.1107     2.0177     0.0076 C.ar    
   7 N7             3.6050    -0.5221     0.0026 N.pl3   
   8 C8             4.4849     0.5437     0.0021 C.ar    
   9 C9             3.7359     1.7321     0.0037 C.ar    
  10 N10            5.8106     0.6023     0.0000 N.ar    
  11 C11            6.4552     1.7504    -0.0006 C.ar    
  12 C12            5.7794     2.9585     0.0009 C.ar    
  13 C13            4.3950     2.9595     0.0039 C.ar    
  14 N14           -1.2018    -0.6886     0.0103 N.pl3   
  15 C15           -2.4069     0.0153     0.1318 C.ar    
  16 C16           -3.5402    -0.4279    -0.5371 C.ar    
  17 C17           -4.7282     0.2655    -0.4170 C.ar    
  18 C18           -4.7895     1.4062     0.3727 C.ar    
  19 C19           -3.6560     1.8494     1.0416 C.ar    
  20 C20           -2.4695     1.1529     0.9257 C.ar    
  21 N21           -5.9934     2.1094     0.4941 N.3     
  22 C22           -5.8350     3.2773     1.3719 C.3     
  23 C23           -7.1485     4.0617     1.4149 C.3     
  24 N24           -8.2241     3.1849     1.8987 N.3     
  25 C25           -8.3825     2.0170     1.0209 C.3     
  26 C26           -7.0690     1.2326     0.9779 C.3     
  27 C27            4.0029    -1.9320     0.0018 C.3     
  28 C28            4.8400    -2.2427    -1.2514 C.3     
  29 C29            6.2209    -2.7161    -0.7527 C.3     
  30 C30            5.9493    -3.2365     0.6806 C.3     
  31 C31            4.9044    -2.2274     1.2183 C.3     
  32 H32            1.0903     3.0975     0.0082 H       
  33 H33            7.5352     1.7495    -0.0019 H       
  34 H34            6.3260     3.8899     0.0009 H       
  35 H35            3.8410     3.8866     0.0050 H       
  36 H36           -1.2108    -1.6550    -0.0724 H       
  37 H37           -3.4924    -1.3148    -1.1515 H       
  38 H38           -5.6095    -0.0790    -0.9375 H       
  39 H39           -3.7036     2.7366     1.6557 H       
  40 H40           -1.5880     1.4974     1.4461 H       
  41 H41           -5.5772     2.9443     2.3773 H       
  42 H42           -5.0417     3.9174     0.9859 H       
  43 H43           -7.0422     4.9123     2.0882 H       
  44 H44           -7.3923     4.4180     0.4140 H       
  45 H45           -8.0573     2.9005     2.8523 H       
  46 H46           -9.1758     1.3769     1.4069 H       
  47 H47           -8.6403     2.3500     0.0155 H       
  48 H48           -7.1753     0.3820     0.3046 H       
  49 H49           -6.8252     0.8763     1.9787 H       
  50 H50            3.1189    -2.5692     0.0278 H       
  51 H51            4.3626    -3.0313    -1.8331 H       
  52 H52            4.9501    -1.3445    -1.8590 H       
  53 H53            6.6000    -3.5192    -1.3847 H       
  54 H54            6.9241    -1.8835    -0.7295 H       
  55 H55            5.5348    -4.2442     0.6537 H       
  56 H56            6.8587    -3.2076     1.2809 H       
  57 H57            5.3949    -1.3159     1.5599 H       
  58 H58            4.3227    -2.6739     2.0247 H       
@<TRIPOS>BOND
   1    1    2 ar
   2    1    6 ar
   3    2    3 ar
   4    2   14 1
   5    3    4 ar
   6    4    5 ar
   7    4    7 1
   8    5    6 ar
   9    5    9 1
  10    6   32 1
  11    7    8 1
  12    7   27 1
  13    8    9 ar
  14    8   10 ar
  15    9   13 ar
  16   10   11 ar
  17   11   12 ar
  18   11   33 1
  19   12   13 ar
  20   12   34 1
  21   13   35 1
  22   14   15 1
  23   14   36 1
  24   15   16 ar
  25   15   20 ar
  26   16   17 ar
  27   16   37 1
  28   17   18 ar
  29   17   38 1
  30   18   19 ar
  31   18   21 1
  32   19   20 ar
  33   19   39 1
  34   20   40 1
  35   21   22 1
  36   21   26 1
  37   22   23 1
  38   22   41 1
  39   22   42 1
  40   23   24 1
  41   23   43 1
  42   23   44 1
  43   24   25 1
  44   24   45 1
  45   25   26 1
  46   25   46 1
  47   25   47 1
  48   26   48 1
  49   26   49 1
  50   27   28 1
  51   27   31 1
  52   27   50 1
  53   28   29 1
  54   28   51 1
  55   28   52 1
  56   29   30 1
  57   29   53 1
  58   29   54 1
  59   30   31 1
  60   30   55 1
  61   30   56 1
  62   31   57 1
  63   31   58 1

#	End of record

