#	Name: ASD08170017
#	Creating user name:	WinNT
#	Creation time:	15. 06. 2019 21:17

#	Modifying user name:	WinNT
#	Modification time:	15. 06. 2019 21:17

#	Program:	/corina/corina34_cracker 3.40 0067  02.08.2006

@<TRIPOS>MOLECULE
ASD08170017
  63   67    0    0    0
SMALL
NO_CHARGES


@<TRIPOS>ATOM
   1 C1            -1.5893     1.1319     1.5973 C.ar    
   2 C2            -1.6943    -0.2379     1.8145 C.ar    
   3 N3            -0.6545    -1.0274     1.6980 N.ar    
   4 C4             0.5509    -0.5470     1.3839 C.ar    
   5 C5             0.7038     0.8186     1.0298 C.ar    
   6 C6            -0.3912     1.6705     1.2081 C.ar    
   7 C7             1.6871    -1.3791     1.4529 C.ar    
   8 C8             2.9117    -0.9126     1.1001 C.ar    
   9 C9             3.0835     0.3849     0.6228 C.ar    
  10 C10            1.9929     1.2663     0.5119 C.ar    
  11 N11            4.3440     0.8451     0.2605 N.pl3   
  12 C12            4.6173     2.2787     0.4423 C.3     
  13 C13            3.4564     3.0615    -0.1266 C.2     
  14 C14            2.2028     2.5217    -0.1040 C.2     
  15 C15            3.6927     4.3351    -0.6613 C.2     
  16 C16            2.5915     5.1485    -1.2851 C.3     
  17 C17            1.2529     4.7550    -0.6539 C.3     
  18 C18            1.0881     3.2426    -0.8130 C.3     
  19 C19            1.2358     5.1424     0.8243 C.3     
  20 C20            0.1135     5.4727    -1.3847 C.3     
  21 O21            4.8186     4.7986    -0.6238 O.2     
  22 C22            4.7749     2.5848     1.9094 C.ar    
  23 C23            5.7500     3.4713     2.3281 C.ar    
  24 C24            5.8971     3.7541     3.6728 C.ar    
  25 C25            5.0634     3.1467     4.6040 C.ar    
  26 C26            4.0849     2.2572     4.1792 C.ar    
  27 C27            3.9403     1.9828     2.8333 C.ar    
  28 Br28           7.2316     4.9655     4.2450 Br      
  29 N29            5.2094     3.4297     5.9644 N.3     
  30 C30            3.8498     5.4640     6.0665 C.3     
  31 C31            3.9771     4.0075     6.5172 C.3     
  32 C32            7.0872     1.9337     6.4470 C.3     
  33 C33            5.6098     2.2301     6.7118 C.3     
  34 H34           -2.4509     1.7697     1.7308 H       
  35 H35           -2.6507    -0.6594     2.0839 H       
  36 H36           -0.3012     2.7401     1.0998 H       
  37 H37            1.5809    -2.3983     1.7917 H       
  38 H38            3.7709    -1.5603     1.1937 H       
  39 H39            5.0153     0.2469    -0.0946 H       
  40 H40            5.5306     2.5417    -0.0894 H       
  41 H41            2.7783     6.2092    -1.1091 H       
  42 H42            2.5598     4.9591    -2.3585 H       
  43 H43            1.1616     3.0072    -1.8873 H       
  44 H44            0.1148     2.9267    -0.4762 H       
  45 H45            1.3734     6.2195     0.9193 H       
  46 H46            0.2795     4.8581     1.2634 H       
  47 H47            2.0424     4.6258     1.3446 H       
  48 H48            0.1181     5.1851    -2.4360 H       
  49 H49           -0.8394     5.1927    -0.9356 H       
  50 H50            0.2512     6.5508    -1.3023 H       
  51 H51            6.3974     3.9428     1.6037 H       
  52 H52            3.4353     1.7834     4.9002 H       
  53 H53            3.1795     1.2912     2.5026 H       
  54 H54            2.9739     5.9138     6.5341 H       
  55 H55            4.7427     6.0151     6.3618 H       
  56 H56            3.7421     5.5008     4.9824 H       
  57 H57            3.1177     3.4401     6.1598 H       
  58 H58            4.0127     3.9658     7.6058 H       
  59 H59            7.4095     1.1034     7.0754 H       
  60 H60            7.2225     1.6694     5.3982 H       
  61 H61            7.6822     2.8171     6.6787 H       
  62 H62            5.4584     2.3988     7.7779 H       
  63 H63            5.0056     1.3823     6.3887 H       
@<TRIPOS>BOND
   1    1    2 ar
   2    1    6 ar
   3    1   34 1
   4    2    3 ar
   5    2   35 1
   6    3    4 ar
   7    4    5 ar
   8    4    7 ar
   9    5    6 ar
  10    5   10 ar
  11    6   36 1
  12    7    8 ar
  13    7   37 1
  14    8    9 ar
  15    8   38 1
  16    9   10 ar
  17    9   11 1
  18   10   14 1
  19   11   12 1
  20   11   39 1
  21   12   13 1
  22   12   22 1
  23   12   40 1
  24   13   14 2
  25   13   15 1
  26   14   18 1
  27   15   16 1
  28   15   21 2
  29   16   17 1
  30   16   41 1
  31   16   42 1
  32   17   18 1
  33   17   19 1
  34   17   20 1
  35   18   43 1
  36   18   44 1
  37   19   45 1
  38   19   46 1
  39   19   47 1
  40   20   48 1
  41   20   49 1
  42   20   50 1
  43   22   23 ar
  44   22   27 ar
  45   23   24 ar
  46   23   51 1
  47   24   25 ar
  48   24   28 1
  49   25   26 ar
  50   25   29 1
  51   26   27 ar
  52   26   52 1
  53   27   53 1
  54   29   31 1
  55   29   33 1
  56   30   31 1
  57   30   54 1
  58   30   55 1
  59   30   56 1
  60   31   57 1
  61   31   58 1
  62   32   33 1
  63   32   59 1
  64   32   60 1
  65   32   61 1
  66   33   62 1
  67   33   63 1

#	End of record

