#	Name: ASD03910110
#	Creating user name:	WinNT
#	Creation time:	15. 06. 2019 20:47

#	Modifying user name:	WinNT
#	Modification time:	15. 06. 2019 20:47

#	Program:	/corina/corina34_cracker 3.40 0067  02.08.2006

@<TRIPOS>MOLECULE
ASD03910110
  44   45    0    0    0
SMALL
NO_CHARGES


@<TRIPOS>ATOM
   1 C1            -0.0173     1.4248     0.0099 C.3     
   2 O2             0.0021    -0.0041     0.0020 O.3     
   3 C3            -1.1961    -0.6353     0.0101 C.ar    
   4 C4            -1.2501    -2.0393     0.0030 C.ar    
   5 C5            -2.4842    -2.6837     0.0114 C.ar    
   6 C6            -3.6590    -1.9294     0.0266 C.ar    
   7 C7            -3.5918    -0.5288     0.0335 C.ar    
   8 C8            -2.3715     0.1061     0.0310 C.ar    
   9 C9            -4.9647    -2.6028     0.0350 C.2     
  10 O10           -5.9850    -1.9472     0.0483 O.2     
  11 C11           -0.0040    -2.8275    -0.0136 C.2     
  12 O12            1.0719    -2.2630    -0.0212 O.2     
  13 O13           -0.0585    -4.1738    -0.0203 O.3     
  14 O14            3.5735     3.6238    -2.1622 O.3     
  15 C15            4.8314     4.0894    -2.3492 C.ar    
  16 C16            5.3224     4.2821    -3.6515 C.ar    
  17 C17            6.6162     4.7610    -3.8387 C.ar    
  18 C18            7.4160     5.0462    -2.7304 C.ar    
  19 C19            6.9145     4.8497    -1.4357 C.ar    
  20 C20            5.6339     4.3818    -1.2528 C.ar    
  21 C21            8.7824     5.5514    -2.9205 C.2     
  22 O22            9.4769     5.7990    -1.9575 O.2     
  23 C23            4.4706     3.9777    -4.8159 C.2     
  24 O24            3.3419     3.5595    -4.6502 O.2     
  25 O25            4.9438     4.1634    -6.0638 O.3     
  26 C26            3.1395     3.4517    -0.8116 C.3     
  27 C27            1.7257     2.9300    -0.8009 C.2     
  28 C28            1.3965     1.9464    -0.0008 C.2     
  29 H29           -0.5445     1.7859    -0.8732 H       
  30 H30           -0.5275     1.7763     0.9067 H       
  31 H31           -2.5325    -3.7626     0.0057 H       
  32 H32           -4.5013     0.0535     0.0453 H       
  33 H33           -2.3266     1.1851     0.0412 H       
  34 H34           -5.0160    -3.6815     0.0293 H       
  35 H35            0.7846    -4.6473    -0.0312 H       
  36 H36            6.9997     4.9110    -4.8371 H       
  37 H37            7.5342     5.0707    -0.5793 H       
  38 H38            5.2519     4.2371    -0.2530 H       
  39 H39            9.1684     5.7023    -3.9178 H       
  40 H40            4.3485     3.9499    -6.7953 H       
  41 H41            3.7933     2.7397    -0.3078 H       
  42 H42            3.1773     4.4096    -0.2930 H       
  43 H43            0.9839     3.3671    -1.4529 H       
  44 H44            2.1383     1.5093     0.6511 H       
@<TRIPOS>BOND
   1    1    2 1
   2    1   28 1
   3    1   29 1
   4    1   30 1
   5    2    3 1
   6    3    4 ar
   7    3    8 ar
   8    4    5 ar
   9    4   11 1
  10    5    6 ar
  11    5   31 1
  12    6    7 ar
  13    6    9 1
  14    7    8 ar
  15    7   32 1
  16    8   33 1
  17    9   10 2
  18    9   34 1
  19   11   12 2
  20   11   13 1
  21   13   35 1
  22   14   15 1
  23   14   26 1
  24   15   16 ar
  25   15   20 ar
  26   16   17 ar
  27   16   23 1
  28   17   18 ar
  29   17   36 1
  30   18   19 ar
  31   18   21 1
  32   19   20 ar
  33   19   37 1
  34   20   38 1
  35   21   22 2
  36   21   39 1
  37   23   24 2
  38   23   25 1
  39   25   40 1
  40   26   27 1
  41   26   41 1
  42   26   42 1
  43   27   28 2
  44   27   43 1
  45   28   44 1

#	End of record

