#	Name: ASD01916764
#	Creating user name:	WinNT
#	Creation time:	15. 06. 2019 20:07

#	Modifying user name:	WinNT
#	Modification time:	15. 06. 2019 20:07

#	Program:	/corina/corina34_cracker 3.40 0067  02.08.2006

@<TRIPOS>MOLECULE
ASD01916764
  55   58    0    0    0
SMALL
NO_CHARGES


@<TRIPOS>ATOM
   1 C1            -0.0168     1.3841     0.0097 C.ar    
   2 C2             0.0021    -0.0041     0.0020 C.ar    
   3 C3             1.2121    -0.6845    -0.0132 C.ar    
   4 C4             2.3993     0.0172    -0.0203 C.ar    
   5 C5             2.3835     1.4108    -0.0126 C.ar    
   6 C6             1.1673     2.0911     0.0021 C.ar    
   7 C7             3.6591     2.1687    -0.0197 C.2     
   8 N8             3.7745     3.5035    -0.0136 N.2     
   9 N9             4.8639     1.6415    -0.0274 N.2     
  10 N10            5.7730     2.7119    -0.0312 N.pl3   
  11 C11            5.0378     3.8382    -0.0220 C.2     
  12 C12            5.5783     5.2449    -0.0226 C.3     
  13 C13            5.7493     5.7250    -1.4653 C.3     
  14 O14           -1.1660    -0.6981     0.0099 O.3     
  15 C15           -1.0735    -2.1240     0.0013 C.3     
  16 F16           -0.3966    -2.5405    -1.1500 F       
  17 F17           -0.3739    -2.5528     1.1344 F       
  18 C18            7.2351     2.6198    -0.0393 C.3     
  19 C19            7.7287     2.5904    -1.4629 C.2     
  20 O20            6.9371     2.6414    -2.3803 O.2     
  21 N21            9.0498     2.5075    -1.7165 N.am    
  22 C22            9.5527     2.4775    -3.0983 C.3     
  23 C23           10.6443     3.5432    -3.2423 C.3     
  24 N24           11.6644     3.3379    -2.2053 N.3     
  25 C25           11.0997     3.5116    -0.8604 C.3     
  26 C26           10.0271     2.4507    -0.6189 C.3     
  27 C27           12.7468     4.1781    -2.4011 C.ar    
  28 N28           13.7655     4.1281    -1.5555 N.ar    
  29 N29           12.7419     5.0094    -3.4327 N.ar    
  30 C30           14.8152     4.9173    -1.7140 C.ar    
  31 C31           14.8403     5.8031    -2.7797 C.ar    
  32 C32           13.7604     5.8254    -3.6484 C.ar    
  33 H33           -0.9596     1.9108     0.0170 H       
  34 H34            1.2237    -1.7644    -0.0191 H       
  35 H35            3.3403    -0.5126    -0.0314 H       
  36 H36            1.1520     3.1710     0.0077 H       
  37 H37            4.8820     5.9018     0.4987 H       
  38 H38            6.5435     5.2636     0.4833 H       
  39 H39            6.1401     6.7425    -1.4657 H       
  40 H40            6.4455     5.0681    -1.9867 H       
  41 H41            4.7840     5.7064    -1.9712 H       
  42 H42           -2.0754    -2.5532     0.0089 H       
  43 H43            7.6565     3.4844     0.4736 H       
  44 H44            7.5446     1.7079     0.4714 H       
  45 H45            9.9702     1.4941    -3.3147 H       
  46 H46            8.7377     2.6925    -3.7894 H       
  47 H47           11.1049     3.4615    -4.2268 H       
  48 H48           10.2033     4.5334    -3.1276 H       
  49 H49           11.8904     3.4070    -0.1176 H       
  50 H50           10.6523     4.5023    -0.7790 H       
  51 H51            9.5265     2.6455     0.3296 H       
  52 H52           10.4874     1.4630    -0.5971 H       
  53 H53           15.6424     4.8722    -1.0212 H       
  54 H54           15.6847     6.4589    -2.9323 H       
  55 H55           13.7488     6.5038    -4.4886 H       
@<TRIPOS>BOND
   1    1    2 ar
   2    1    6 ar
   3    1   33 1
   4    2    3 ar
   5    2   14 1
   6    3    4 ar
   7    3   34 1
   8    4    5 ar
   9    4   35 1
  10    5    6 ar
  11    5    7 1
  12    6   36 1
  13    7    8 1
  14    7    9 2
  15    8   11 2
  16    9   10 1
  17   10   11 1
  18   10   18 1
  19   11   12 1
  20   12   13 1
  21   12   37 1
  22   12   38 1
  23   13   39 1
  24   13   40 1
  25   13   41 1
  26   14   15 1
  27   15   16 1
  28   15   17 1
  29   15   42 1
  30   18   19 1
  31   18   43 1
  32   18   44 1
  33   19   20 2
  34   19   21 am
  35   21   22 1
  36   21   26 1
  37   22   23 1
  38   22   45 1
  39   22   46 1
  40   23   24 1
  41   23   47 1
  42   23   48 1
  43   24   25 1
  44   24   27 1
  45   25   26 1
  46   25   49 1
  47   25   50 1
  48   26   51 1
  49   26   52 1
  50   27   28 ar
  51   27   29 ar
  52   28   30 ar
  53   29   32 ar
  54   30   31 ar
  55   30   53 1
  56   31   32 ar
  57   31   54 1
  58   32   55 1

#	End of record

