#	Name: ASD01881592
#	Creating user name:	WinNT
#	Creation time:	15. 06. 2019 19:43

#	Modifying user name:	WinNT
#	Modification time:	15. 06. 2019 19:43

#	Program:	/corina/corina34_cracker 3.40 0067  02.08.2006

@<TRIPOS>MOLECULE
ASD01881592
  45   47    0    0    0
SMALL
NO_CHARGES


@<TRIPOS>ATOM
   1 N1            -0.0154     1.2839     0.0091 N.pl3   
   2 N2             0.0021    -0.0041     0.0020 N.2     
   3 N3             1.2033    -0.4649    -0.0119 N.2     
   4 C4             2.0741     0.5645    -0.0147 C.ar    
   5 C5             1.2843     1.7298    -0.0009 C.ar    
   6 C6             3.4670     0.6759    -0.0271 C.ar    
   7 C7             4.0484     1.9285    -0.0255 C.ar    
   8 C8             3.2560     3.0739    -0.0118 C.ar    
   9 C9             1.8924     2.9784    -0.0004 C.ar    
  10 O10            5.4033     2.0444    -0.0370 O.3     
  11 C11            5.9411     3.3683    -0.0346 C.3     
  12 C12            8.1349     3.2732    -1.2468 C.ar    
  13 C13            7.4465     3.2990    -0.0485 C.ar    
  14 C14            8.1583     3.2607     1.1405 C.ar    
  15 C15            9.5423     3.1977     1.0794 C.ar    
  16 C16           10.1614     3.1752    -0.1558 C.ar    
  17 N17            9.4519     3.2126    -1.2669 N.ar    
  18 C18           11.6648     3.1068    -0.2341 C.3     
  19 F19           12.0697     1.7680    -0.2646 F       
  20 F20           12.1012     3.7526    -1.3959 F       
  21 F21           12.2193     3.7362     0.8856 F       
  22 C22           -1.2133     2.1272     0.0196 C.3     
  23 C23           -1.6228     2.4135     1.4657 C.3     
  24 C24           -0.4829     3.1377     2.1848 C.3     
  25 C25           -2.8739     3.2942     1.4767 C.3     
  26 C26           -1.9212     1.0947     2.1819 C.3     
  27 Br27           4.5472    -0.8761    -0.0451 Br      
  28 H28            3.7236     4.0474    -0.0103 H       
  29 H29            1.2882     3.8735     0.0099 H       
  30 H30            5.5939     3.9031    -0.9187 H       
  31 H31            5.6098     3.8935     0.8612 H       
  32 H32            7.5875     3.2982    -2.1775 H       
  33 H33            7.6472     3.2799     2.0917 H       
  34 H34           10.1288     3.1668     1.9857 H       
  35 H35           -1.0007     3.0667    -0.4906 H       
  36 H36           -2.0254     1.6113    -0.4926 H       
  37 H37           -0.2704     4.0772     1.6746 H       
  38 H38           -0.7746     3.3417     3.2150 H       
  39 H39            0.4084     2.5103     2.1769 H       
  40 H40           -3.6859     2.7782     0.9645 H       
  41 H41           -3.1656     3.4981     2.5070 H       
  42 H42           -2.6613     4.2337     0.9666 H       
  43 H43           -1.0299     0.4673     2.1740 H       
  44 H44           -2.2129     1.2987     3.2121 H       
  45 H45           -2.7332     0.5788     1.6696 H       
@<TRIPOS>BOND
   1    1    2 1
   2    1    5 1
   3    1   22 1
   4    2    3 2
   5    3    4 1
   6    4    5 ar
   7    4    6 ar
   8    5    9 ar
   9    6    7 ar
  10    6   27 1
  11    7    8 ar
  12    7   10 1
  13    8    9 ar
  14    8   28 1
  15    9   29 1
  16   10   11 1
  17   11   13 1
  18   11   30 1
  19   11   31 1
  20   12   13 ar
  21   12   17 ar
  22   12   32 1
  23   13   14 ar
  24   14   15 ar
  25   14   33 1
  26   15   16 ar
  27   15   34 1
  28   16   17 ar
  29   16   18 1
  30   18   19 1
  31   18   20 1
  32   18   21 1
  33   22   23 1
  34   22   35 1
  35   22   36 1
  36   23   24 1
  37   23   25 1
  38   23   26 1
  39   24   37 1
  40   24   38 1
  41   24   39 1
  42   25   40 1
  43   25   41 1
  44   25   42 1
  45   26   43 1
  46   26   44 1
  47   26   45 1

#	End of record

