#	Name: ASD01148142
#	Creating user name:	WinNT
#	Creation time:	15. 06. 2019 19:02

#	Modifying user name:	WinNT
#	Modification time:	15. 06. 2019 19:02

#	Program:	/corina/corina34_cracker 3.40 0067  02.08.2006

@<TRIPOS>MOLECULE
ASD01148142
  56   60    0    0    0
SMALL
NO_CHARGES


@<TRIPOS>ATOM
   1 C1            -0.1587     0.9711    -0.4889 C.ar    
   2 C2            -0.1221    -0.2747     0.1320 C.ar    
   3 N3            -1.2014    -0.8131     0.6582 N.ar    
   4 C4            -2.3780    -0.1995     0.6253 C.ar    
   5 C5            -2.4897     1.0619     0.0143 C.ar    
   6 C6            -1.3621     1.6626    -0.5481 C.ar    
   7 N7            -3.4867    -0.7933     1.1859 N.pl3   
   8 C8            -4.6986    -0.2225     1.1819 C.2     
   9 C9            -4.9300     1.0123     0.6125 C.2     
  10 C10           -3.8046     1.7267    -0.0119 C.2     
  11 C11           -6.2767     1.6045     0.6289 C.2     
  12 N12           -6.4662     2.8603     0.1777 N.am    
  13 C13           -7.7613     3.3831     0.0865 C.ar    
  14 O14           -7.2192     0.9606     1.0496 O.2     
  15 O15           -3.9539     2.8201    -0.5287 O.2     
  16 C16           -3.3342    -2.1079     1.8142 C.3     
  17 N17            1.0028     1.5220    -1.0408 N.pl3   
  18 C18            2.2682     0.7874    -0.9678 C.3     
  19 C19            3.2181     1.2162    -2.1062 C.3     
  20 C20            4.6059     1.1669    -1.5039 C.ar    
  21 C21            4.5164     1.1499    -0.1248 C.ar    
  22 C22            3.0623     1.1866     0.2941 C.3     
  23 C23            5.8488     1.1395    -2.1144 C.ar    
  24 C24            6.9979     1.0949    -1.3497 C.ar    
  25 C25            6.9083     1.0779     0.0298 C.ar    
  26 C26            5.6699     1.1056     0.6404 C.ar    
  27 C27           -2.9850    -1.9290     3.2930 C.3     
  28 C28           -7.9815     4.7369     0.3035 C.ar    
  29 C29           -9.2603     5.2508     0.2129 C.ar    
  30 C30          -10.3224     4.4170    -0.0939 C.ar    
  31 C31          -10.1051     3.0667    -0.3107 C.ar    
  32 C32           -8.8271     2.5498    -0.2268 C.ar    
  33 F33          -11.5726     4.9216    -0.1816 F       
  34 H34            0.8136    -0.8116     0.1825 H       
  35 H35           -1.4252     2.6310    -1.0220 H       
  36 H36           -5.5235    -0.7478     1.6403 H       
  37 H37           -5.7050     3.4017    -0.0837 H       
  38 H38           -4.2680    -2.6633     1.7260 H       
  39 H39           -2.5359    -2.6582     1.3163 H       
  40 H40            0.9703     2.3903    -1.4719 H       
  41 H41            2.0921    -0.2880    -0.9944 H       
  42 H42            3.1439     0.5212    -2.9427 H       
  43 H43            2.9834     2.2292    -2.4332 H       
  44 H44            2.7857     2.1916     0.6128 H       
  45 H45            2.8817     0.4714     1.0966 H       
  46 H46            5.9195     1.1528    -3.1920 H       
  47 H47            7.9655     1.0730    -1.8289 H       
  48 H48            7.8060     1.0428     0.6294 H       
  49 H49            5.6008     1.0922     1.7181 H       
  50 H50           -3.7834    -1.3788     3.7909 H       
  51 H51           -2.8716    -2.9072     3.7604 H       
  52 H52           -2.0512    -1.3737     3.3812 H       
  53 H53           -7.1534     5.3875     0.5432 H       
  54 H54           -9.4320     6.3036     0.3820 H       
  55 H55          -10.9349     2.4181    -0.5496 H       
  56 H56           -8.6579     1.4967    -0.3963 H       
@<TRIPOS>BOND
   1    1    2 ar
   2    1   17 1
   3    1    6 ar
   4    2    3 ar
   5    2   34 1
   6    3    4 ar
   7    4    5 ar
   8    4    7 1
   9    5    6 ar
  10    5   10 1
  11    6   35 1
  12    7    8 1
  13    7   16 1
  14    8    9 2
  15    8   36 1
  16    9   10 1
  17    9   11 1
  18   10   15 2
  19   11   12 am
  20   11   14 2
  21   12   13 1
  22   12   37 1
  23   13   28 ar
  24   13   32 ar
  25   16   27 1
  26   16   38 1
  27   16   39 1
  28   17   18 1
  29   17   40 1
  30   18   19 1
  31   18   22 1
  32   18   41 1
  33   19   20 1
  34   19   42 1
  35   19   43 1
  36   20   21 ar
  37   20   23 ar
  38   21   22 1
  39   21   26 ar
  40   22   44 1
  41   22   45 1
  42   23   24 ar
  43   23   46 1
  44   24   25 ar
  45   24   47 1
  46   25   26 ar
  47   25   48 1
  48   26   49 1
  49   27   50 1
  50   27   51 1
  51   27   52 1
  52   28   29 ar
  53   28   53 1
  54   29   30 ar
  55   29   54 1
  56   30   31 ar
  57   30   33 1
  58   31   32 ar
  59   31   55 1
  60   32   56 1

#	End of record

