#	Name: ASD07930037
#	Creating user name:	WinNT
#	Creation time:	15. 06. 2019 21:11

#	Modifying user name:	WinNT
#	Modification time:	15. 06. 2019 21:11

#	Program:	/corina/corina34_cracker 3.40 0067  02.08.2006

@<TRIPOS>MOLECULE
ASD07930037
  52   56    0    0    0
SMALL
NO_CHARGES


@<TRIPOS>ATOM
   1 C1            -0.0167     1.3807     0.0096 C.2     
   2 N2             0.0021    -0.0041     0.0020 N.am    
   3 N3             1.2023     2.0320     0.0015 N.pl3   
   4 C4             2.2545     1.5040    -0.8785 C.3     
   5 C5             2.4301    -0.0046    -0.6026 C.3     
   6 C6             1.1260    -0.6674    -0.3006 C.2     
   7 C7             3.6038     2.1081    -0.4355 C.3     
   8 N8             4.2432     1.1401     0.4737 N.3     
   9 C9             3.3350    -0.0129     0.6493 C.3     
  10 C10            4.5423     1.7266     1.6926 C.ar    
  11 N11            4.2404     3.0014     1.8874 N.ar    
  12 C12            4.5117     3.5928     3.0394 C.ar    
  13 C13            5.1197     2.8603     4.0490 C.ar    
  14 C14            5.4219     1.5268     3.8101 C.ar    
  15 N15            5.1184     0.9972     2.6365 N.ar    
  16 F16            5.4114     3.4323     5.2376 F       
  17 C17            4.1651     5.0439     3.2523 C.3     
  18 C18            1.9625     1.7955    -2.3280 C.ar    
  19 C19            2.5817     1.6549    -4.6404 C.ar    
  20 C20            1.4276     2.3287    -4.9906 C.ar    
  21 C21            0.5372     2.7328    -4.0100 C.ar    
  22 N22           -1.1378     2.0425     0.0186 N.2     
  23 C23           -1.2164    -0.7493     0.3279 C.3     
  24 O24            1.0819    -1.8787    -0.3312 O.2     
  25 C25            2.8503     1.3874    -3.3085 C.ar    
  26 C26            0.8057     2.4654    -2.6786 C.ar    
  27 F27           -0.5912     3.3921    -4.3524 F       
  28 C28            6.0829     0.6914     4.8761 C.3     
  29 C29            5.3331    -0.5481     5.3683 C.3     
  30 C30            6.5688    -0.7042     4.4798 C.3     
  31 F31            3.9789     0.7284    -2.9661 F       
  32 H32            1.3581     2.8114     0.5575 H       
  33 H33            2.9183    -0.4925    -1.4462 H       
  34 H34            4.2388     2.2739    -1.3058 H       
  35 H35            3.4343     3.0500     0.0861 H       
  36 H36            2.7352     0.1114     1.5509 H       
  37 H37            3.9056    -0.9403     0.6980 H       
  38 H38            3.1577     5.1206     3.6614 H       
  39 H39            4.8753     5.4885     3.9496 H       
  40 H40            4.2118     5.5721     2.3000 H       
  41 H41            3.2760     1.3394    -5.4052 H       
  42 H42            1.2181     2.5374    -6.0293 H       
  43 H43           -1.9825     1.5657     0.0200 H       
  44 H44           -2.0230    -0.0493     0.5458 H       
  45 H45           -1.4972    -1.3749    -0.5194 H       
  46 H46           -1.0355    -1.3781     1.1996 H       
  47 H47            0.1109     2.7800    -1.9139 H       
  48 H48            6.6763     1.2432     5.6051 H       
  49 H49            5.4336    -0.8120     6.4211 H       
  50 H50            4.3617    -0.7593     4.9211 H       
  51 H51            6.4105    -1.0181     3.4481 H       
  52 H52            7.4823    -1.0708     4.9480 H       
@<TRIPOS>BOND
   1    1    2 1
   2    1    3 1
   3    1   22 2
   4    2   23 1
   5    2    6 am
   6    3    4 1
   7    3   32 1
   8    4    7 1
   9    4   18 1
  10    4    5 1
  11    5    6 1
  12    5    9 1
  13    5   33 1
  14    6   24 2
  15    7    8 1
  16    7   34 1
  17    7   35 1
  18    8    9 1
  19    8   10 1
  20    9   36 1
  21    9   37 1
  22   10   11 ar
  23   10   15 ar
  24   11   12 ar
  25   12   13 ar
  26   12   17 1
  27   13   14 ar
  28   13   16 1
  29   14   15 ar
  30   14   28 1
  31   17   38 1
  32   17   39 1
  33   17   40 1
  34   18   25 ar
  35   18   26 ar
  36   19   20 ar
  37   19   25 ar
  38   19   41 1
  39   20   21 ar
  40   20   42 1
  41   21   26 ar
  42   21   27 1
  43   22   43 1
  44   23   44 1
  45   23   45 1
  46   23   46 1
  47   25   31 1
  48   26   47 1
  49   28   29 1
  50   28   30 1
  51   28   48 1
  52   29   30 1
  53   29   49 1
  54   29   50 1
  55   30   51 1
  56   30   52 1

#	End of record

