#	Name: ASD04220013
#	Creating user name:	WinNT
#	Creation time:	15. 06. 2019 20:48

#	Modifying user name:	WinNT
#	Modification time:	15. 06. 2019 20:48

#	Program:	/corina/corina34_cracker 3.40 0067  02.08.2006

@<TRIPOS>MOLECULE
ASD04220013
  22   22    0    0    0
SMALL
NO_CHARGES


@<TRIPOS>ATOM
   1 C1            -0.0168     1.3846     0.0097 C.ar    
   2 C2             0.0021    -0.0041     0.0020 C.ar    
   3 C3             1.2174    -0.6893    -0.0128 C.ar    
   4 C4             2.4055     0.0123    -0.0203 C.ar    
   5 C5             2.3876     1.4129    -0.0131 C.ar    
   6 C6             1.1642     2.0930     0.0022 C.ar    
   7 O7            -1.1654    -0.6967     0.0094 O.3     
   8 C8            -2.3729     0.0672     0.0250 C.3     
   9 O9             1.2309    -2.0492    -0.0193 O.3     
  10 C10            2.5105    -2.6852    -0.0345 C.3     
  11 C11            3.6486     2.1657    -0.0206 C.2     
  12 O12            3.6309     3.3785    -0.0143 O.2     
  13 H13           -0.9601     1.9103     0.0170 H       
  14 H14            3.3469    -0.5170    -0.0314 H       
  15 H15            1.1465     3.1728     0.0074 H       
  16 H16           -2.3967     0.6909     0.9186 H       
  17 H17           -2.4137     0.7005    -0.8612 H       
  18 H18           -3.2293    -0.6070     0.0296 H       
  19 H19            2.3785    -3.7672    -0.0383 H       
  20 H20            3.0561    -2.3826    -0.9283 H       
  21 H21            3.0730    -2.3910     0.8516 H       
  22 H22            4.5916     1.6394    -0.0317 H       
@<TRIPOS>BOND
   1    1    2 ar
   2    1    6 ar
   3    1   13 1
   4    2    3 ar
   5    2    7 1
   6    3    4 ar
   7    3    9 1
   8    4    5 ar
   9    4   14 1
  10    5    6 ar
  11    5   11 1
  12    6   15 1
  13    7    8 1
  14    8   16 1
  15    8   17 1
  16    8   18 1
  17    9   10 1
  18   10   19 1
  19   10   20 1
  20   10   21 1
  21   11   12 2
  22   11   22 1

#	End of record

