#	Name: ASD01917738
#	Creating user name:	WinNT
#	Creation time:	15. 06. 2019 20:09

#	Modifying user name:	WinNT
#	Modification time:	15. 06. 2019 20:09

#	Program:	/corina/corina34_cracker 3.40 0067  02.08.2006

@<TRIPOS>MOLECULE
ASD01917738
  49   52    0    0    0
SMALL
NO_CHARGES


@<TRIPOS>ATOM
   1 C1            -0.6851     0.3985     0.1498 C.ar    
   2 C2            -0.7893    -0.9831     0.1204 C.ar    
   3 C3            -2.0330    -1.5889     0.0905 C.ar    
   4 C4            -3.1785    -0.8211     0.0898 C.ar    
   5 C5            -3.0826     0.5730     0.1194 C.ar    
   6 C6            -1.8248     1.1796     0.1548 C.ar    
   7 C7            -4.2685     1.3757     0.1183 C.1     
   8 C8            -5.2407     2.0337     0.1174 C.1     
   9 C9            -6.4266     2.8364     0.1163 C.ar    
  10 C10           -6.3485     4.2353     0.1457 C.ar    
  11 N11           -7.4661     4.9387     0.1432 N.ar    
  12 C12           -8.6475     4.3397     0.1134 C.ar    
  13 N13           -8.7645     3.0203     0.0850 N.ar    
  14 C14           -7.6961     2.2442     0.0799 C.ar    
  15 N15           -9.7969     5.1178     0.1123 N.am    
  16 C16           -9.8265     6.4562     0.1389 C.2     
  17 N17          -11.0619     6.9728     0.1313 N.am    
  18 C18          -12.0449     5.8806     0.0949 C.3     
  19 C19          -11.1729     4.6021     0.0755 C.3     
  20 C20          -12.7915     5.9128    -1.2536 C.3     
  21 C21          -11.9114     5.0584    -2.1987 C.3     
  22 C22          -11.4327     3.9180    -1.2815 C.3     
  23 H23          -12.7191     5.9088     0.9510 H       
  24 H24          -11.3820     3.9499     0.9235 H       
  25 C25          -11.3832     8.4019     0.1560 C.3     
  26 O26           -8.8223     7.1408     0.1680 O.2     
  27 C27          -11.6450     8.8410     1.5980 C.3     
  28 O28          -10.4415     8.7197     2.3588 O.3     
  29 C29          -10.5776     9.1069     3.7276 C.3     
  30 F30            0.5328     0.9824     0.1793 F       
  31 H31            0.1042    -1.5896     0.1204 H       
  32 H32           -2.1067    -2.6661     0.0673 H       
  33 H33           -4.1481    -1.2962     0.0661 H       
  34 H34           -1.7433     2.2563     0.1777 H       
  35 H35           -5.3890     4.7304     0.1705 H       
  36 H36           -7.7992     1.1694     0.0564 H       
  37 H37          -13.7822     5.4699    -1.1514 H       
  38 H38          -12.8664     6.9354    -1.6235 H       
  39 H39          -12.5023     4.6639    -3.0253 H       
  40 H40          -11.0661     5.6385    -2.5690 H       
  41 H41          -10.5119     3.4799    -1.6668 H       
  42 H42          -12.2066     3.1565    -1.1845 H       
  43 H43          -10.5461     8.9696    -0.2504 H       
  44 H44          -12.2729     8.5847    -0.4467 H       
  45 H45          -11.9775     9.8790     1.6071 H       
  46 H46          -12.4170     8.2083     2.0360 H       
  47 H47           -9.6212     8.9859     4.2363 H       
  48 H48          -10.8879    10.1504     3.7809 H       
  49 H49          -11.3275     8.4798     4.2098 H       
@<TRIPOS>BOND
   1    1    2 ar
   2    1   30 1
   3    1    6 ar
   4    2    3 ar
   5    2   31 1
   6    3    4 ar
   7    3   32 1
   8    4    5 ar
   9    4   33 1
  10    5    6 ar
  11    5    7 1
  12    6   34 1
  13    7    8 3
  14    8    9 1
  15    9   10 ar
  16    9   14 ar
  17   10   11 ar
  18   10   35 1
  19   11   12 ar
  20   12   13 ar
  21   12   15 1
  22   13   14 ar
  23   14   36 1
  24   15   16 am
  25   15   19 1
  26   16   17 am
  27   16   26 2
  28   17   18 1
  29   17   25 1
  30   18   19 1
  31   18   20 1
  32   18   23 1
  33   19   24 1
  34   19   22 1
  35   20   21 1
  36   20   37 1
  37   20   38 1
  38   21   22 1
  39   21   39 1
  40   21   40 1
  41   22   41 1
  42   22   42 1
  43   25   27 1
  44   25   43 1
  45   25   44 1
  46   27   28 1
  47   27   45 1
  48   27   46 1
  49   28   29 1
  50   29   47 1
  51   29   48 1
  52   29   49 1

#	End of record

