#	Name: ASD02198333
#	Creating user name:	WinNT
#	Creation time:	15. 06. 2019 20:19

#	Modifying user name:	WinNT
#	Modification time:	15. 06. 2019 20:19

#	Program:	/corina/corina34_cracker 3.40 0067  02.08.2006

@<TRIPOS>MOLECULE
ASD02198333
  39   41    0    0    0
SMALL
NO_CHARGES


@<TRIPOS>ATOM
   1 C1             0.4985     1.5473     0.0790 C.2     
   2 C2             0.6596     0.1760     0.1444 C.2     
   3 S3             2.0815     2.2841     0.3138 S.3     
   4 C4             2.7951     0.7398     0.4735 C.2     
   5 N5             1.8999    -0.1982     0.3557 N.2     
   6 N6            -0.3890    -0.7189     0.0013 N.pl3   
   7 C7            -0.7121     2.2320    -0.1416 C.2     
   8 C8            -0.7553     3.7066    -0.0461 C.ar    
   9 O9            -1.7249     1.6085    -0.4116 O.2     
  10 N10            4.1361     0.5174     0.6962 N.pl3   
  11 C11           -1.6886     4.4295    -0.7925 C.ar    
  12 C12            0.1332     4.3800     0.7952 C.ar    
  13 C13            0.0896     5.7540     0.8819 C.ar    
  14 C14           -0.8372     6.4702     0.1341 C.ar    
  15 C15           -1.7261     5.8034    -0.7004 C.ar    
  16 C16            4.5999    -0.7806     0.9309 C.ar    
  17 C17            5.9019    -1.1218     0.5995 C.ar    
  18 C18            6.3598    -2.4186     0.8358 C.ar    
  19 C19            5.5031    -3.3635     1.4044 C.ar    
  20 C20            4.2086    -3.0134     1.7306 C.ar    
  21 C21            3.7569    -1.7274     1.5019 C.ar    
  22 O22           -0.8775     7.8242     0.2225 O.3     
  23 C23           -1.8547     8.4975    -0.5735 C.3     
  24 F24           -1.6298     8.2156    -1.9252 F       
  25 F25           -3.1331     8.0590    -0.2121 F       
  26 C26            7.7033    -2.7793     0.4959 C.1     
  27 N27            8.7691    -3.0655     0.2262 N.1     
  28 H28           -1.2888    -0.3910    -0.1530 H       
  29 H29           -0.2231    -1.6731     0.0554 H       
  30 H30            4.7587     1.2612     0.6903 H       
  31 H31           -2.3797     3.9120    -1.4412 H       
  32 H32            0.8533     3.8241     1.3772 H       
  33 H33            0.7764     6.2754     1.5322 H       
  34 H34           -2.4450     6.3633    -1.2802 H       
  35 H35            6.5596    -0.3867     0.1597 H       
  36 H36            5.8535    -4.3684     1.5885 H       
  37 H37            3.5476    -3.7456     2.1703 H       
  38 H38            2.7428    -1.4594     1.7593 H       
  39 H39           -1.7793     9.5724    -0.4091 H       
@<TRIPOS>BOND
   1    1    2 2
   2    1    3 1
   3    1    7 1
   4    2    6 1
   5    2    5 1
   6    3    4 1
   7    4    5 2
   8    4   10 1
   9    6   28 1
  10    6   29 1
  11    7    8 1
  12    7    9 2
  13    8   11 ar
  14    8   12 ar
  15   10   16 1
  16   10   30 1
  17   11   15 ar
  18   11   31 1
  19   12   13 ar
  20   12   32 1
  21   13   14 ar
  22   13   33 1
  23   14   15 ar
  24   14   22 1
  25   15   34 1
  26   16   17 ar
  27   16   21 ar
  28   17   18 ar
  29   17   35 1
  30   18   19 ar
  31   18   26 1
  32   19   20 ar
  33   19   36 1
  34   20   21 ar
  35   20   37 1
  36   21   38 1
  37   22   23 1
  38   23   24 1
  39   23   25 1
  40   23   39 1
  41   26   27 3

#	End of record

