#	Name: ASD01914132
#	Creating user name:	WinNT
#	Creation time:	15. 06. 2019 20:02

#	Modifying user name:	WinNT
#	Modification time:	15. 06. 2019 20:02

#	Program:	/corina/corina34_cracker 3.40 0067  02.08.2006

@<TRIPOS>MOLECULE
ASD01914132
  54   57    0    0    0
SMALL
NO_CHARGES


@<TRIPOS>ATOM
   1 C1             2.0403     0.6169     0.6489 C.ar    
   2 C2             1.6963    -0.8190     0.5994 C.2     
   3 N3             0.4948    -1.3370     0.4131 N.2     
   4 C4             0.6680    -2.6674     0.4442 C.2     
   5 N5             1.9328    -2.8954     0.6427 N.2     
   6 O6             2.5439    -1.8514     0.7291 O.3     
   7 C7            -0.4088    -3.7089     0.2798 C.3     
   8 C8            -0.0892    -4.5870    -0.9321 C.3     
   9 C9            -1.1988    -5.6242    -1.1195 C.3     
  10 C10           -1.2700    -6.5198     0.1213 C.3     
  11 N11           -1.4323    -5.6704     1.3090 N.am    
  12 C12           -0.4710    -4.5828     1.5365 C.3     
  13 C13            0.0217    -7.3307     0.2433 C.3     
  14 C14           -2.4439    -5.8847     2.1735 C.2     
  15 C15           -2.5240    -5.1032     3.4258 C.ar    
  16 C16           -1.4001    -4.9413     4.2471 C.ar    
  17 C17           -1.5153    -4.2053     5.4061 C.ar    
  18 N18           -2.6633    -3.6530     5.7529 N.ar    
  19 C19           -3.7507    -3.7751     5.0153 C.ar    
  20 C20           -3.7242    -4.4989     3.8220 C.ar    
  21 O21           -3.2903    -6.7205     1.9234 O.2     
  22 C22            3.3631     1.0138     0.8545 C.ar    
  23 C23            3.6786     2.3551     0.8998 C.ar    
  24 C24            2.6853     3.3091     0.7417 C.ar    
  25 C25            1.3704     2.9206     0.5373 C.ar    
  26 C26            1.0447     1.5820     0.4844 C.ar    
  27 F27            2.9998     4.6222     0.7874 F       
  28 O28           -4.8434    -4.6232     3.0642 O.3     
  29 O29           -4.9058    -3.1869     5.4188 O.3     
  30 C30           -5.0659    -3.6242     2.0670 C.3     
  31 C31           -4.8673    -2.4559     6.6460 C.3     
  32 H32           -1.3702    -3.2177     0.1298 H       
  33 H33           -0.0201    -3.9641    -1.8239 H       
  34 H34            0.8607    -5.0967    -0.7709 H       
  35 H35           -2.1531    -5.1154    -1.2561 H       
  36 H36           -0.9824    -6.2341    -1.9966 H       
  37 H37           -2.1212    -7.1953     0.0360 H       
  38 H38            0.5144    -5.0025     1.7388 H       
  39 H39           -0.7950    -3.9802     2.3850 H       
  40 H40            0.8696    -6.6519     0.3346 H       
  41 H41           -0.0309    -7.9672     1.1265 H       
  42 H42            0.1467    -7.9508    -0.6445 H       
  43 H43           -0.4553    -5.3883     3.9750 H       
  44 H44           -0.6517    -4.0783     6.0421 H       
  45 H45            4.1377     0.2714     0.9781 H       
  46 H46            4.7014     2.6632     1.0591 H       
  47 H47            0.6004     3.6680     0.4147 H       
  48 H48            0.0200     1.2804     0.3252 H       
  49 H49           -4.2341    -3.6222     1.3626 H       
  50 H50           -5.9920    -3.8419     1.5349 H       
  51 H51           -5.1414    -2.6464     2.5427 H       
  52 H52           -4.5797    -3.1239     7.4579 H       
  53 H53           -4.1400    -1.6481     6.5652 H       
  54 H54           -5.8530    -2.0381     6.8512 H       
@<TRIPOS>BOND
   1    1    2 1
   2    1   22 ar
   3    1   26 ar
   4    2    3 2
   5    2    6 1
   6    3    4 1
   7    4    5 2
   8    4    7 1
   9    5    6 1
  10    7    8 1
  11    7   12 1
  12    7   32 1
  13    8    9 1
  14    8   33 1
  15    8   34 1
  16    9   10 1
  17    9   35 1
  18    9   36 1
  19   10   11 1
  20   10   13 1
  21   10   37 1
  22   11   12 1
  23   11   14 am
  24   12   38 1
  25   12   39 1
  26   13   40 1
  27   13   41 1
  28   13   42 1
  29   14   15 1
  30   14   21 2
  31   15   16 ar
  32   15   20 ar
  33   16   17 ar
  34   16   43 1
  35   17   18 ar
  36   17   44 1
  37   18   19 ar
  38   19   20 ar
  39   19   29 1
  40   20   28 1
  41   22   23 ar
  42   22   45 1
  43   23   24 ar
  44   23   46 1
  45   24   25 ar
  46   24   27 1
  47   25   26 ar
  48   25   47 1
  49   26   48 1
  50   28   30 1
  51   29   31 1
  52   30   49 1
  53   30   50 1
  54   30   51 1
  55   31   52 1
  56   31   53 1
  57   31   54 1

#	End of record

