#	Name: ASD05730143
#	Creating user name:	WinNT
#	Creation time:	15. 06. 2019 21:02

#	Modifying user name:	WinNT
#	Modification time:	15. 06. 2019 21:02

#	Program:	/corina/corina34_cracker 3.40 0067  02.08.2006

@<TRIPOS>MOLECULE
ASD05730143
  80   86    0    0    0
SMALL
NO_CHARGES


@<TRIPOS>ATOM
   1 N1            -0.1039     1.3590    -0.5498 N.pl3   
   2 C2            -0.0723    -0.0388    -0.4921 C.ar    
   3 C3            -1.0842    -0.7814    -1.0865 C.ar    
   4 C4            -1.0530    -2.1606    -1.0295 C.ar    
   5 C5            -0.0100    -2.8052    -0.3774 C.ar    
   6 C6             1.0016    -2.0626     0.2174 C.ar    
   7 C7             0.9740    -0.6836     0.1547 C.ar    
   8 N8             0.0214    -4.2043    -0.3192 N.pl3   
   9 C9             1.2307    -4.8704    -0.3624 C.ar    
  10 N10            1.2419    -6.1838    -0.1927 N.ar    
  11 C11            2.3852    -6.8589    -0.2280 C.ar    
  12 C12            3.5852    -6.1491    -0.4498 C.ar    
  13 C13            3.5201    -4.7584    -0.6238 C.ar    
  14 N14            2.3393    -4.1707    -0.5781 N.ar    
  15 N15            2.4062    -8.2196    -0.0527 N.am    
  16 C16            3.5685    -8.8992    -0.0891 C.2     
  17 C17            4.8313    -8.1933    -0.3172 C.2     
  18 C18            4.8200    -6.8357    -0.4940 C.2     
  19 C19            1.1517    -8.9405     0.1769 C.3     
  20 O20            3.5695   -10.1070     0.0689 O.2     
  21 C21            6.1093    -8.9417    -0.3571 C.ar    
  22 C22            0.9635     2.1424     0.0773 C.3     
  23 C23            0.8576    -9.8807    -1.0102 C.3     
  24 C24            1.0686     3.5065    -0.6103 C.3     
  25 C25            6.8418    -9.1405     0.8139 C.ar    
  26 C26            1.2774    -9.8332     1.4239 C.3     
  27 C27            1.0553   -11.2847     0.9510 C.3     
  28 C28            1.4144   -11.2526    -0.5553 C.3     
  29 C29            2.1434     4.3428     0.0880 C.3     
  30 N30            1.7898     4.5137     1.5030 N.3     
  31 C31            1.7294     3.2201     2.1953 C.3     
  32 C32            0.6423     2.3503     1.5599 C.3     
  33 C33            6.5828    -9.4559    -1.5648 C.ar    
  34 C34            7.7749   -10.1526    -1.5951 C.ar    
  35 C35            8.4991   -10.3412    -0.4318 C.ar    
  36 C36            8.0325    -9.8390     0.7697 C.ar    
  37 Cl37           6.2582    -8.5106     2.3226 Cl      
  38 Cl38           5.6751    -9.2209    -3.0259 Cl      
  39 S39           10.0188   -11.2317    -0.4792 S.o2    
  40 C40           11.3006   -10.0604    -0.7785 C.ar    
  41 C41           11.9463    -9.4302     0.2743 C.ar    
  42 C42           11.6914    -9.7511    -2.0724 C.ar    
  43 C43           12.7005    -8.8274    -2.2684 C.ar    
  44 N44           13.2892    -8.2436    -1.2429 N.ar    
  45 C45           12.9470    -8.5171     0.0009 C.ar    
  46 O46           10.2315   -11.7325     0.8335 O.2     
  47 O47            9.9600   -12.0648    -1.6288 O.2     
  48 H48           -0.8305     1.8092    -1.0084 H       
  49 H49           -1.8957    -0.2801    -1.5930 H       
  50 H50           -1.8399    -2.7381    -1.4918 H       
  51 H51            1.8123    -2.5640     0.7251 H       
  52 H52            1.7609    -0.1062     0.6170 H       
  53 H53           -0.8061    -4.7055    -0.2486 H       
  54 H54            4.4170    -4.1816    -0.7952 H       
  55 H55            5.7408    -6.2973    -0.6633 H       
  56 H56            0.3328    -8.2327     0.3054 H       
  57 H57            1.9104     1.6113    -0.0202 H       
  58 H58           -0.2157    -9.9449    -1.1892 H       
  59 H59            1.3748    -9.5371    -1.9061 H       
  60 H60            1.3393     3.3666    -1.6568 H       
  61 H61            0.1095     4.0205    -0.5474 H       
  62 H62            2.2718    -9.7300     1.8583 H       
  63 H63            0.5190    -9.5592     2.1573 H       
  64 H64            1.7168   -11.9658     1.4865 H       
  65 H65            0.0139   -11.5757     1.0889 H       
  66 H66            0.9206   -12.0656    -1.0876 H       
  67 H67            2.4944   -11.2970    -0.6960 H       
  68 H68            3.1048     3.8347     0.0128 H       
  69 H69            2.2108     5.3200    -0.3901 H       
  70 H70            2.4328     5.1404     1.9632 H       
  71 H71            2.6927     2.7173     2.1101 H       
  72 H72            1.4961     3.3819     3.2476 H       
  73 H73           -0.3235     2.8462     1.6569 H       
  74 H74            0.6083     1.3843     2.0638 H       
  75 H75            8.1424   -10.5514    -2.5292 H       
  76 H76            8.6027    -9.9896     1.6745 H       
  77 H77           11.6705    -9.6500     1.2951 H       
  78 H78           11.2136   -10.2264    -2.9163 H       
  79 H79           13.0108    -8.5810    -3.2731 H       
  80 H80           13.4519    -8.0188     0.8152 H       
@<TRIPOS>BOND
   1    1    2 1
   2    1   22 1
   3    1   48 1
   4    2    3 ar
   5    2    7 ar
   6    3    4 ar
   7    3   49 1
   8    4    5 ar
   9    4   50 1
  10    5    6 ar
  11    5    8 1
  12    6    7 ar
  13    6   51 1
  14    7   52 1
  15    8    9 1
  16    8   53 1
  17    9   10 ar
  18    9   14 ar
  19   10   11 ar
  20   11   12 ar
  21   11   15 1
  22   12   13 ar
  23   12   18 1
  24   13   14 ar
  25   13   54 1
  26   15   16 am
  27   15   19 1
  28   16   17 1
  29   16   20 2
  30   17   18 2
  31   17   21 1
  32   18   55 1
  33   19   26 1
  34   19   23 1
  35   19   56 1
  36   21   25 ar
  37   21   33 ar
  38   22   24 1
  39   22   32 1
  40   22   57 1
  41   23   28 1
  42   23   58 1
  43   23   59 1
  44   24   29 1
  45   24   60 1
  46   24   61 1
  47   25   37 1
  48   25   36 ar
  49   26   27 1
  50   26   62 1
  51   26   63 1
  52   27   28 1
  53   27   64 1
  54   27   65 1
  55   28   66 1
  56   28   67 1
  57   29   30 1
  58   29   68 1
  59   29   69 1
  60   30   31 1
  61   30   70 1
  62   31   32 1
  63   31   71 1
  64   31   72 1
  65   32   73 1
  66   32   74 1
  67   33   34 ar
  68   33   38 1
  69   34   35 ar
  70   34   75 1
  71   35   36 ar
  72   35   39 1
  73   36   76 1
  74   39   40 1
  75   39   46 2
  76   39   47 2
  77   40   41 ar
  78   40   42 ar
  79   41   45 ar
  80   41   77 1
  81   42   43 ar
  82   42   78 1
  83   43   44 ar
  84   43   79 1
  85   44   45 ar
  86   45   80 1

#	End of record

