#	Name: ASD08150234
#	Creating user name:	WinNT
#	Creation time:	15. 06. 2019 21:15

#	Modifying user name:	WinNT
#	Modification time:	15. 06. 2019 21:15

#	Program:	/corina/corina34_cracker 3.40 0067  02.08.2006

@<TRIPOS>MOLECULE
ASD08150234
  47   51    0    0    0
SMALL
NO_CHARGES


@<TRIPOS>ATOM
   1 N1            -0.0157     1.2952    -0.0517 N.2     
   2 C2             0.0018    -0.0026    -0.0878 C.2     
   3 N3             1.1485    -0.7346    -0.1052 N.am    
   4 C4             2.3559    -0.1234    -0.0850 C.2     
   5 C5             2.3702     1.3460    -0.0441 C.ar    
   6 C6             3.5601     2.0709    -0.0203 C.ar    
   7 C7             3.5158     3.4472     0.0183 C.ar    
   8 C8             2.2979     4.1146     0.0337 C.ar    
   9 C9             1.1111     3.4173     0.0107 C.ar    
  10 C10            1.1296     2.0215    -0.0285 C.ar    
  11 O11            3.3900    -0.7656    -0.0998 O.2     
  12 C12            1.0789    -2.1329    -0.1439 C.ar    
  13 C13            1.0414    -2.8608     1.0384 C.ar    
  14 C14            0.9415    -4.8953    -0.2203 C.ar    
  15 C15            1.0415    -2.7941    -1.3642 C.ar    
  16 C16            0.9729    -4.2393     0.9969 C.ar    
  17 C17            0.9729    -4.1733    -1.3990 C.ar    
  18 C18            1.0761    -2.1468     2.3651 C.3     
  19 C19           -1.3149    -0.7353    -0.1111 C.3     
  20 N20           -3.9990     1.5251     0.6798 N.2     
  21 C21           -3.0832     0.6648     1.0189 C.2     
  22 N22           -2.4134     0.2336    -0.0866 N.pl3   
  23 C23           -2.9561     0.8730    -1.1727 C.ar    
  24 N24           -2.7282     0.8615    -2.4786 N.ar    
  25 C25           -3.4450     1.6136    -3.2878 C.ar    
  26 N26           -4.4092     2.4033    -2.8510 N.ar    
  27 C27           -4.7064     2.4789    -1.5646 C.ar    
  28 C28           -3.9768     1.7021    -0.6638 C.ar    
  29 C29            4.8858     1.3543    -0.0362 C.3     
  30 H30            4.4361     4.0122     0.0372 H       
  31 H31            2.2816     5.1940     0.0644 H       
  32 H32            0.1701     3.9473     0.0234 H       
  33 H33            0.8882    -5.9736    -0.2501 H       
  34 H34            1.0656    -2.2306    -2.2852 H       
  35 H35            0.9440    -4.8059     1.9159 H       
  36 H36            0.9487    -4.6884    -2.3479 H       
  37 H37            0.0580    -1.9233     2.6841 H       
  38 H38            1.5580    -2.7829     3.1075 H       
  39 H39            1.6372    -1.2179     2.2633 H       
  40 H40           -1.3804    -1.3360    -1.0183 H       
  41 H41           -1.3844    -1.3855     0.7610 H       
  42 H42           -2.8831     0.3402     2.0293 H       
  43 H43           -3.2364     1.5839    -4.3471 H       
  44 H44           -5.4968     3.1284    -1.2186 H       
  45 H45            5.1535     1.1083    -1.0638 H       
  46 H46            5.6522     1.9986     0.3945 H       
  47 H47            4.8105     0.4379     0.5490 H       
@<TRIPOS>BOND
   1    1    2 2
   2    1   10 1
   3    2    3 1
   4    2   19 1
   5    3    4 am
   6    3   12 1
   7    4    5 1
   8    4   11 2
   9    5    6 ar
  10    5   10 ar
  11    6    7 ar
  12    6   29 1
  13    7    8 ar
  14    7   30 1
  15    8    9 ar
  16    8   31 1
  17    9   10 ar
  18    9   32 1
  19   12   13 ar
  20   12   15 ar
  21   13   16 ar
  22   13   18 1
  23   14   16 ar
  24   14   17 ar
  25   14   33 1
  26   15   17 ar
  27   15   34 1
  28   16   35 1
  29   17   36 1
  30   18   37 1
  31   18   38 1
  32   18   39 1
  33   19   22 1
  34   19   40 1
  35   19   41 1
  36   20   21 2
  37   20   28 1
  38   21   22 1
  39   21   42 1
  40   22   23 1
  41   23   24 ar
  42   23   28 ar
  43   24   25 ar
  44   25   26 ar
  45   25   43 1
  46   26   27 ar
  47   27   28 ar
  48   27   44 1
  49   29   45 1
  50   29   46 1
  51   29   47 1

#	End of record

