#	Name: ASD01940263
#	Creating user name:	WinNT
#	Creation time:	15. 06. 2019 20:12

#	Modifying user name:	WinNT
#	Modification time:	15. 06. 2019 20:12

#	Program:	/corina/corina34_cracker 3.40 0067  02.08.2006

@<TRIPOS>MOLECULE
ASD01940263
  62   64    0    0    0
SMALL
NO_CHARGES


@<TRIPOS>ATOM
   1 C1            -0.5974     1.0802    -0.3231 C.ar    
   2 C2            -0.2799     0.3224    -1.4352 C.ar    
   3 C3             0.9715    -0.2591    -1.5471 C.ar    
   4 C4             1.9117    -0.0846    -0.5442 C.ar    
   5 C5             1.5984     0.6753     0.5749 C.ar    
   6 C6             0.3379     1.2601     0.6850 C.ar    
   7 N7             0.0165     2.0285     1.8119 N.am    
   8 S8            -1.5092     1.9609     2.4524 S.o2    
   9 O9            -1.4522     2.8177     3.5845 O.2     
  10 O10           -2.3633     2.2528     1.3549 O.2     
  11 F11            1.2764    -0.9985    -2.6359 F       
  12 F12            3.1319    -0.6538    -0.6550 F       
  13 N13            2.5470     0.8535     1.5914 N.pl3   
  14 C14            2.9034    -0.2216     2.4112 C.ar    
  15 C15            3.9688    -0.0993     3.2979 C.ar    
  16 C16            2.1918    -1.4118     2.3465 C.ar    
  17 C17            2.5466    -2.4725     3.1579 C.ar    
  18 C18            3.6087    -2.3504     4.0344 C.ar    
  19 C19            4.3177    -1.1648     4.1064 C.ar    
  20 F20            4.6612     1.0587     3.3682 F       
  21 C21            3.9914    -3.5100     4.9176 C.3     
  22 C22           -1.7064     0.2337     2.9706 C.3     
  23 C23           -0.5393    -0.1800     3.8693 C.3     
  24 C24           -3.0380     0.0574     3.7213 C.3     
  25 C25           -1.7719    -0.6851     1.7331 C.3     
  26 C26           -0.6134     0.5911     5.1887 C.3     
  27 C27            0.5321     0.1503     6.1021 C.3     
  28 C28            0.3896     0.8321     7.4643 C.3     
  29 O29           -0.7847     0.3477     8.1189 O.3     
  30 C30            1.6173     0.5195     8.3221 C.3     
  31 O31            1.5399     1.2491     9.5484 O.3     
  32 C32           -2.8086    -1.7692     2.1194 C.3     
  33 C33           -3.8675    -0.9623     2.9138 C.3     
  34 H34           -1.5731     1.5361    -0.2414 H       
  35 H35           -1.0103     0.1835    -2.2186 H       
  36 H36            0.6876     2.5999     2.2168 H       
  37 H37            2.9560     1.7226     1.7261 H       
  38 H38            1.3614    -1.5085     1.6628 H       
  39 H39            1.9930    -3.3985     3.1076 H       
  40 H40            5.1470    -1.0728     4.7922 H       
  41 H41            4.7234    -4.1325     4.4031 H       
  42 H42            4.4226    -3.1333     5.8451 H       
  43 H43            3.1050    -4.1027     5.1434 H       
  44 H44           -0.5968    -1.2498     4.0700 H       
  45 H45            0.4023     0.0458     3.3689 H       
  46 H46           -2.8528    -0.3237     4.7256 H       
  47 H47           -3.5657     1.0097     3.7743 H       
  48 H48           -2.1111    -0.1265     0.8608 H       
  49 H49           -0.7991    -1.1383     1.5425 H       
  50 H50           -0.5292     1.6596     4.9903 H       
  51 H51           -1.5664     0.3861     5.6764 H       
  52 H52            0.4976    -0.9314     6.2319 H       
  53 H53            1.4843     0.4321     5.6526 H       
  54 H54            0.3090     1.9101     7.3244 H       
  55 H55           -0.7501    -0.5920     8.3442 H       
  56 H56            1.6485    -0.5488     8.5362 H       
  57 H57            2.5199     0.8086     7.7837 H       
  58 H58            2.2874     1.0990    10.1432 H       
  59 H59           -3.2506    -2.2158     1.2287 H       
  60 H60           -2.3526    -2.5325     2.7499 H       
  61 H61           -4.4233    -1.6180     3.5840 H       
  62 H62           -4.5455    -0.4483     2.2325 H       
@<TRIPOS>BOND
   1    1    2 ar
   2    1    6 ar
   3    1   34 1
   4    2    3 ar
   5    2   35 1
   6    3    4 ar
   7    3   11 1
   8    4    5 ar
   9    4   12 1
  10    5    6 ar
  11    5   13 1
  12    6    7 1
  13    7    8 am
  14    7   36 1
  15    8    9 2
  16    8   10 2
  17    8   22 1
  18   13   14 1
  19   13   37 1
  20   14   15 ar
  21   14   16 ar
  22   15   20 1
  23   15   19 ar
  24   16   17 ar
  25   16   38 1
  26   17   18 ar
  27   17   39 1
  28   18   19 ar
  29   18   21 1
  30   19   40 1
  31   21   41 1
  32   21   42 1
  33   21   43 1
  34   22   23 1
  35   22   24 1
  36   22   25 1
  37   23   26 1
  38   23   44 1
  39   23   45 1
  40   24   33 1
  41   24   46 1
  42   24   47 1
  43   25   32 1
  44   25   48 1
  45   25   49 1
  46   26   27 1
  47   26   50 1
  48   26   51 1
  49   27   28 1
  50   27   52 1
  51   27   53 1
  52   28   29 1
  53   28   30 1
  54   28   54 1
  55   29   55 1
  56   30   31 1
  57   30   56 1
  58   30   57 1
  59   31   58 1
  60   32   33 1
  61   32   59 1
  62   32   60 1
  63   33   61 1
  64   33   62 1

#	End of record

