#	Name: ASD03740098
#	Creating user name:	WinNT
#	Creation time:	15. 06. 2019 20:46

#	Modifying user name:	WinNT
#	Modification time:	15. 06. 2019 20:46

#	Program:	/corina/corina34_cracker 3.40 0067  02.08.2006

@<TRIPOS>MOLECULE
ASD03740098
  56   59    0    0    0
SMALL
NO_CHARGES


@<TRIPOS>ATOM
   1 C1            -0.0168     1.3849     0.0097 C.ar    
   2 C2             0.0021    -0.0041     0.0020 C.ar    
   3 C3             1.1850    -0.6877    -0.0125 C.ar    
   4 C4             2.3894     0.0113    -0.0203 C.ar    
   5 C5             2.3718     1.4195    -0.0131 C.ar    
   6 C6             1.1486     2.0963     0.0023 C.ar    
   7 N7             3.7063    -0.3680    -0.0346 N.pl3   
   8 N8             4.5133     0.7743    -0.0364 N.2     
   9 C9             3.7704     1.8474    -0.0241 C.2     
  10 O10            4.2163     3.1315    -0.0222 O.3     
  11 C11            4.1915    -1.7503    -0.0454 C.3     
  12 C12            5.6318     3.3268    -0.0344 C.3     
  13 C13            5.9400     4.8254    -0.0302 C.3     
  14 C14            7.4556     5.0345    -0.0433 C.3     
  15 N15            7.7515     6.4734    -0.0393 N.3     
  16 C16            9.1820     6.7158     0.1866 C.3     
  17 C17            4.3443    -2.2179    -1.4698 C.ar    
  18 C18            5.5441    -2.0357    -2.1320 C.ar    
  19 C19            5.6848    -2.4644    -3.4384 C.ar    
  20 C20            4.6247    -3.0760    -4.0834 C.ar    
  21 C21            3.4242    -3.2581    -3.4203 C.ar    
  22 C22            3.2865    -2.8340    -2.1120 C.ar    
  23 Cl23           4.8005    -3.6142    -5.7245 Cl      
  24 C24            6.9303     7.1767     0.9543 C.3     
  25 C25            7.1579     8.6850     0.8306 C.3     
  26 C26            8.6407     8.9927     1.0565 C.3     
  27 C27            9.4769     8.2104     0.0400 C.3     
  28 C28            8.8817    10.4694     0.8768 C.2     
  29 O29            7.9625    11.2019     0.5967 O.2     
  30 O30           10.1176    10.9710     1.0279 O.3     
  31 H31           -0.9621     1.9071     0.0170 H       
  32 H32           -0.9296    -0.5502     0.0080 H       
  33 H33            1.1859    -1.7677    -0.0176 H       
  34 H34            1.1256     3.1760     0.0077 H       
  35 H35            5.1565    -1.8005     0.4590 H       
  36 H36            3.4771    -2.3902     0.4724 H       
  37 H37            6.0702     2.8632     0.8494 H       
  38 H38            6.0537     2.8716    -0.9305 H       
  39 H39            5.5016     5.2889    -0.9140 H       
  40 H40            5.5182     5.2806     0.8659 H       
  41 H41            7.8940     4.5709     0.8405 H       
  42 H42            7.8774     4.5793    -0.9394 H       
  43 H43            9.4516     6.3893     1.1910 H       
  44 H44            9.7652     6.1571    -0.5455 H       
  45 H45            6.3715    -1.5579    -1.6284 H       
  46 H46            6.6221    -2.3216    -3.9557 H       
  47 H47            2.5963    -3.7355    -3.9233 H       
  48 H48            2.3494    -2.9761    -1.5942 H       
  49 H49            5.8779     6.9527     0.7799 H       
  50 H50            7.2103     6.8480     1.9552 H       
  51 H51            6.8650     9.0167    -0.1655 H       
  52 H52            6.5601     9.2058     1.5786 H       
  53 H53            8.9245     8.6966     2.0664 H       
  54 H54           10.5359     8.3920     0.2231 H       
  55 H55            9.2205     8.5346    -0.9686 H       
  56 H56           10.2228    11.9241     0.9027 H       
@<TRIPOS>BOND
   1    1    2 ar
   2    1    6 ar
   3    1   31 1
   4    2    3 ar
   5    2   32 1
   6    3    4 ar
   7    3   33 1
   8    4    5 ar
   9    4    7 1
  10    5    6 ar
  11    5    9 1
  12    6   34 1
  13    7    8 1
  14    7   11 1
  15    8    9 2
  16    9   10 1
  17   10   12 1
  18   11   17 1
  19   11   35 1
  20   11   36 1
  21   12   13 1
  22   12   37 1
  23   12   38 1
  24   13   14 1
  25   13   39 1
  26   13   40 1
  27   14   15 1
  28   14   41 1
  29   14   42 1
  30   15   16 1
  31   15   24 1
  32   16   27 1
  33   16   43 1
  34   16   44 1
  35   17   18 ar
  36   17   22 ar
  37   18   19 ar
  38   18   45 1
  39   19   20 ar
  40   19   46 1
  41   20   21 ar
  42   20   23 1
  43   21   22 ar
  44   21   47 1
  45   22   48 1
  46   24   25 1
  47   24   49 1
  48   24   50 1
  49   25   26 1
  50   25   51 1
  51   25   52 1
  52   26   27 1
  53   26   28 1
  54   26   53 1
  55   27   54 1
  56   27   55 1
  57   28   29 2
  58   28   30 1
  59   30   56 1

#	End of record

