#	Name: ASD08178076
#	Creating user name:	WinNT
#	Creation time:	15. 06. 2019 21:18

#	Modifying user name:	WinNT
#	Modification time:	15. 06. 2019 21:18

#	Program:	/corina/corina34_cracker 3.40 0067  02.08.2006

@<TRIPOS>MOLECULE
ASD08178076
  60   61    0    0    0
SMALL
NO_CHARGES


@<TRIPOS>ATOM
   1 N1            -0.0150     1.2583     0.0090 N.2     
   2 N2             0.0021    -0.0041     0.0020 N.2     
   3 C3             1.1271     1.8769     0.0014 C.2     
   4 S4             2.3826     0.7116    -0.0169 S.3     
   5 C5             1.1681    -0.5677    -0.0121 C.2     
   6 N6             1.3017     3.2566     0.0067 N.am    
   7 C7             0.2284     4.0717     0.0214 C.2     
   8 O8            -0.8897     3.6019     0.0299 O.2     
   9 C9             1.4387    -2.0502    -0.0227 C.3     
  10 C10            1.8690    -4.5432    -2.9254 C.3     
  11 C11            2.1395    -6.0257    -2.9359 C.2     
  12 N12            1.2478    -6.9651    -2.9329 N.2     
  13 S13            3.7275    -6.7933    -2.9623 S.3     
  14 C14            2.9647    -8.3272    -2.9581 C.2     
  15 N15            1.6777    -8.1521    -2.9433 N.2     
  16 N16            3.6154    -9.5562    -2.9730 N.am    
  17 C17            2.8993   -10.6980    -2.9678 C.2     
  18 O18            1.6874   -10.6536    -2.9501 O.2     
  19 C19            3.6044   -12.0297    -2.9839 C.3     
  20 C20            0.4176     5.5667     0.0272 C.3     
  21 C21            0.7162     6.0485    -1.3940 C.3     
  22 C22            4.0849   -12.3696    -1.5716 C.3     
  23 C23            4.8008   -13.7216    -1.5880 C.3     
  24 C24            0.9083     7.5664    -1.3881 C.3     
  25 C25            1.9921     5.3749    -1.9033 C.3     
  26 C26            5.0512   -11.2867    -1.0873 C.3     
  27 C27            1.5165    -2.5442    -1.4687 C.3     
  28 C28            1.7912    -4.0493    -1.4794 C.3     
  29 N29           -0.8074     6.2135     0.5162 N.3     
  30 N30            2.6767   -13.0694    -3.4489 N.3     
  31 H31            2.1959     3.6323    -0.0001 H       
  32 H32            2.3843    -2.2506     0.4811 H       
  33 H33            0.6334    -2.5702     0.4961 H       
  34 H34            2.6743    -4.0232    -3.4441 H       
  35 H35            0.9234    -4.3429    -3.4291 H       
  36 H36            4.5846    -9.5917    -2.9871 H       
  37 H37            4.4606   -11.9794    -3.6567 H       
  38 H38            1.2507     5.8250     0.6809 H       
  39 H39           -0.1168     5.7902    -2.0477 H       
  40 H40            3.2288   -12.4199    -0.8988 H       
  41 H41            5.6569   -13.6713    -2.2607 H       
  42 H42            5.1431   -13.9637    -0.5818 H       
  43 H43            4.1124   -14.4931    -1.9330 H       
  44 H44            1.7414     7.8247    -0.7344 H       
  45 H45            1.1211     7.9096    -2.4006 H       
  46 H46           -0.0006     8.0463    -1.0253 H       
  47 H47            1.8552     4.2936    -1.9075 H       
  48 H48            2.2048     5.7181    -2.9158 H       
  49 H49            2.8251     5.6332    -1.2496 H       
  50 H50            4.5412   -10.3234    -1.0756 H       
  51 H51            5.3935   -11.5288    -0.0811 H       
  52 H52            5.9073   -11.2364    -1.7601 H       
  53 H53            0.5709    -2.3438    -1.9724 H       
  54 H54            2.3218    -2.0242    -1.9874 H       
  55 H55            0.9858    -4.5693    -0.9606 H       
  56 H56            2.7368    -4.2496    -0.9756 H       
  57 H57           -1.5948     5.9893    -0.0736 H       
  58 H58           -0.9910     5.9614     1.4758 H       
  59 H59            1.8739   -13.1358    -2.8412 H       
  60 H60            2.3950   -12.9021    -4.4032 H       
@<TRIPOS>BOND
   1    1    2 1
   2    1    3 2
   3    2    5 2
   4    3    4 1
   5    3    6 1
   6    4    5 1
   7    5    9 1
   8    6    7 am
   9    6   31 1
  10    7    8 2
  11    7   20 1
  12    9   27 1
  13    9   32 1
  14    9   33 1
  15   10   11 1
  16   10   28 1
  17   10   34 1
  18   10   35 1
  19   11   12 2
  20   11   13 1
  21   12   15 1
  22   13   14 1
  23   14   15 2
  24   14   16 1
  25   16   17 am
  26   16   36 1
  27   17   18 2
  28   17   19 1
  29   19   30 1
  30   19   22 1
  31   19   37 1
  32   20   21 1
  33   20   29 1
  34   20   38 1
  35   21   24 1
  36   21   25 1
  37   21   39 1
  38   22   26 1
  39   22   23 1
  40   22   40 1
  41   23   41 1
  42   23   42 1
  43   23   43 1
  44   24   44 1
  45   24   45 1
  46   24   46 1
  47   25   47 1
  48   25   48 1
  49   25   49 1
  50   26   50 1
  51   26   51 1
  52   26   52 1
  53   27   28 1
  54   27   53 1
  55   27   54 1
  56   28   55 1
  57   28   56 1
  58   29   57 1
  59   29   58 1
  60   30   59 1
  61   30   60 1

#	End of record

