#	Name: ASD01882827
#	Creating user name:	WinNT
#	Creation time:	15. 06. 2019 19:45

#	Modifying user name:	WinNT
#	Modification time:	15. 06. 2019 19:45

#	Program:	/corina/corina34_cracker 3.40 0067  02.08.2006

@<TRIPOS>MOLECULE
ASD01882827
  50   52    0    0    0
SMALL
NO_CHARGES


@<TRIPOS>ATOM
   1 C1            -1.1762     3.2351    -2.8096 C.ar    
   2 N2            -1.4022     1.9899    -2.4383 N.ar    
   3 C3            -0.4841     1.2733    -1.8200 C.ar    
   4 C4             0.7586     1.8084    -1.5374 C.ar    
   5 C5             1.0330     3.1144    -1.9125 C.ar    
   6 C6             0.0426     3.8368    -2.5608 C.ar    
   7 C7             1.8020     0.9825    -0.8300 C.3     
   8 N8             2.6106     0.2656    -1.8192 N.am    
   9 C9             3.7076     0.8966    -2.4158 C.ar    
  10 S10            2.2262    -1.2916    -2.2311 S.o2    
  11 O11            3.4727    -1.8813    -2.5739 O.2     
  12 O12            1.4685    -1.7691    -1.1279 O.2     
  13 C13            1.1754    -1.1249    -3.7004 C.3     
  14 C14            0.9211    -2.5071    -4.3051 C.3     
  15 C15            4.3522     1.9369    -1.7595 C.ar    
  16 C16            5.4351     2.5589    -2.3488 C.ar    
  17 C17            5.8792     2.1447    -3.5962 C.ar    
  18 C18            5.2354     1.1058    -4.2527 C.ar    
  19 C19            4.1559     0.4791    -3.6621 C.ar    
  20 O20            6.9456     2.7577    -4.1758 O.3     
  21 C21            7.6112     3.6947    -3.4548 C.ar    
  22 C22            8.6638     3.3158    -2.6294 C.ar    
  23 C23            7.2425     5.0320    -3.5476 C.ar    
  24 C24            7.9158     5.9859    -2.8178 C.ar    
  25 C25            8.9710     5.6083    -1.9830 C.ar    
  26 C26            9.3420     4.2638    -1.8964 C.ar    
  27 C27            9.6953     6.6276    -1.1989 C.2     
  28 O28            9.3742     7.7976    -1.2789 O.2     
  29 N29           10.7127     6.2616    -0.3943 N.am    
  30 H30           -1.9512     3.7894    -3.3180 H       
  31 H31           -0.7059     0.2567    -1.5308 H       
  32 H32            1.9950     3.5589    -1.7045 H       
  33 H33            0.2217     4.8566    -2.8677 H       
  34 H34            2.4446     1.6364    -0.2405 H       
  35 H35            1.3124     0.2647    -0.1719 H       
  36 H36            0.2253    -0.6714    -3.4181 H       
  37 H37            1.6754    -0.4934    -4.4349 H       
  38 H38            1.8713    -2.9606    -4.5874 H       
  39 H39            0.4212    -3.1386    -3.5706 H       
  40 H40            0.2898    -2.4069    -5.1879 H       
  41 H41            4.0064     2.2597    -0.7886 H       
  42 H42            5.9363     3.3682    -1.8387 H       
  43 H43            5.5815     0.7842    -5.2239 H       
  44 H44            3.6579    -0.3329    -4.1711 H       
  45 H45            8.9498     2.2764    -2.5627 H       
  46 H46            6.4272     5.3231    -4.1933 H       
  47 H47            7.6291     7.0245    -2.8907 H       
  48 H48           10.1594     3.9686    -1.2552 H       
  49 H49           10.9689     5.3282    -0.3305 H       
  50 H50           11.1887     6.9315     0.1209 H       
@<TRIPOS>BOND
   1    1    2 ar
   2    1    6 ar
   3    1   30 1
   4    2    3 ar
   5    3    4 ar
   6    3   31 1
   7    4    5 ar
   8    4    7 1
   9    5    6 ar
  10    5   32 1
  11    6   33 1
  12    7    8 1
  13    7   34 1
  14    7   35 1
  15    8    9 1
  16    8   10 am
  17    9   15 ar
  18    9   19 ar
  19   10   11 2
  20   10   12 2
  21   10   13 1
  22   13   14 1
  23   13   36 1
  24   13   37 1
  25   14   38 1
  26   14   39 1
  27   14   40 1
  28   15   16 ar
  29   15   41 1
  30   16   17 ar
  31   16   42 1
  32   17   18 ar
  33   17   20 1
  34   18   19 ar
  35   18   43 1
  36   19   44 1
  37   20   21 1
  38   21   23 ar
  39   21   22 ar
  40   22   26 ar
  41   22   45 1
  42   23   24 ar
  43   23   46 1
  44   24   25 ar
  45   24   47 1
  46   25   26 ar
  47   25   27 1
  48   26   48 1
  49   27   28 2
  50   27   29 am
  51   29   49 1
  52   29   50 1

#	End of record

