#	Name: ASD01028129
#	Creating user name:	WinNT
#	Creation time:	15. 06. 2019 18:56

#	Modifying user name:	WinNT
#	Modification time:	15. 06. 2019 18:56

#	Program:	/corina/corina34_cracker 3.40 0067  02.08.2006

@<TRIPOS>MOLECULE
ASD01028129
  86   90    0    0    0
SMALL
NO_CHARGES


@<TRIPOS>ATOM
   1 C1            -0.4212     2.0289     0.3564 C.3     
   2 C2            -0.6819     0.5842    -0.0723 C.3     
   3 C3            -1.1792    -0.2285     1.1236 C.3     
   4 C4             1.5233     2.5307     1.8465 C.3     
   5 N5             1.0459     2.2339     0.4710 N.am    
   6 N6             3.7003     2.0214     2.8508 N.3     
   7 N7             2.6400    -1.9620     3.2628 N.pl3   
   8 C8             3.7656    -1.5225     3.9399 C.ar    
   9 C9             4.2047    -0.2280     3.6776 C.ar    
  10 C10            3.4575     0.5892     2.6576 C.3     
  11 C11            4.4483    -2.3134     4.8580 C.ar    
  12 C12            5.5596    -1.8034     5.5160 C.ar    
  13 C13            5.9830    -0.5061     5.2550 C.ar    
  14 C14            5.3035     0.2756     4.3392 C.ar    
  15 O15           -1.5848    -1.5306     0.6932 O.3     
  16 C16           -0.9144    -2.5889     1.2221 C.ar    
  17 C17            0.2445    -2.3601     1.9122 C.ar    
  18 C18            0.9460    -3.4405     2.4591 C.ar    
  19 C19            2.1631    -3.2374     3.1715 C.ar    
  20 N20            2.7627    -4.2968     3.6855 N.ar    
  21 O21            4.2350    -3.5929     5.2704 O.3     
  22 C22            5.2915    -3.9351     6.1727 C.3     
  23 O23            6.0647    -2.7459     6.3588 O.3     
  24 C24           -1.4027    -3.8922     1.0622 C.ar    
  25 C25           -0.7297    -4.9708     1.5991 C.ar    
  26 C26            0.4573    -4.7588     2.3127 C.ar    
  27 N27            1.1530    -5.7597     2.8741 N.ar    
  28 C28            2.2613    -5.5162     3.5330 C.ar    
  29 O29           -2.5540    -4.0969     0.3700 O.3     
  30 C30            3.0260     2.8060     1.8044 C.3     
  31 C31            3.2736     2.4519     4.1889 C.3     
  32 C32            1.8768     2.1565    -0.5873 C.2     
  33 O33            2.9545     2.7170    -0.5559 O.2     
  34 O34            1.5128     1.4582    -1.6794 O.3     
  35 C35            2.4576     1.4180    -2.7812 C.3     
  36 C36            3.7677     0.7859    -2.3069 C.3     
  37 C37            1.8735     0.5845    -3.9236 C.3     
  38 C38            2.7270     2.8411    -3.2743 C.3     
  39 C39           -2.4507    -4.2131    -0.9668 C.2     
  40 O40           -3.5368    -4.5139    -1.7019 O.3     
  41 C41           -3.3513    -4.6233    -3.1378 C.3     
  42 C42           -2.3336    -5.7255    -3.4381 C.3     
  43 C43           -4.6869    -4.9682    -3.7998 C.3     
  44 C44           -2.8380    -3.2914    -3.6887 C.3     
  45 O45           -1.3773    -4.0466    -1.5096 O.2     
  46 H46           -0.8285     2.7110    -0.3900 H       
  47 H47           -0.8929     2.2148     1.3212 H       
  48 H48           -1.4363     0.5701    -0.8590 H       
  49 H49            0.2420     0.1457    -0.4495 H       
  50 H50           -0.3773    -0.3227     1.8558 H       
  51 H51           -2.0268     0.2819     1.5808 H       
  52 H52            1.0027     3.4073     2.2320 H       
  53 H53            1.3274     1.6752     2.4929 H       
  54 H54            2.1291    -1.2812     2.7977 H       
  55 H55            2.3898     0.3912     2.7529 H       
  56 H56            3.7860     0.3021     1.6587 H       
  57 H57            6.8452    -0.1074     5.7689 H       
  58 H58            5.6352     1.2842     4.1415 H       
  59 H59            0.6155    -1.3531     2.0338 H       
  60 H60            4.8777    -4.2655     7.1254 H       
  61 H61            5.9117    -4.7212     5.7419 H       
  62 H62           -1.1156    -5.9713     1.4705 H       
  63 H63            2.7911    -6.3483     3.9727 H       
  64 H64            3.4197     2.5232     0.8281 H       
  65 H65            3.2055     3.8676     1.9742 H       
  66 H66            2.1968     2.3148     4.2885 H       
  67 H67            3.7871     1.8558     4.9433 H       
  68 H68            3.5202     3.5045     4.3278 H       
  69 H69            3.5757    -0.2279    -1.9557 H       
  70 H70            4.4769     0.7557    -3.1341 H       
  71 H71            4.1838     1.3797    -1.4931 H       
  72 H72            0.9401     1.0347    -4.2615 H       
  73 H73            2.5827     0.5542    -4.7508 H       
  74 H74            1.6815    -0.4294    -3.5724 H       
  75 H75            3.1431     3.4349    -2.4604 H       
  76 H76            3.4362     2.8108    -4.1014 H       
  77 H77            1.7936     3.2913    -3.6122 H       
  78 H78           -2.6993    -6.6744    -3.0456 H       
  79 H79           -2.1943    -5.8077    -4.5160 H       
  80 H80           -1.3821    -5.4798    -2.9665 H       
  81 H81           -5.4119    -4.1829    -3.5859 H       
  82 H82           -4.5476    -5.0503    -4.8777 H       
  83 H83           -5.0526    -5.9170    -3.4073 H       
  84 H84           -1.8865    -3.0457    -3.2171 H       
  85 H85           -2.6987    -3.3735    -4.7666 H       
  86 H86           -3.5630    -2.5061    -3.4748 H       
@<TRIPOS>BOND
   1    1    2 1
   2    1    5 1
   3    1   46 1
   4    1   47 1
   5    2    3 1
   6    2   48 1
   7    2   49 1
   8    3   15 1
   9    3   50 1
  10    3   51 1
  11    4    5 1
  12    4   30 1
  13    4   52 1
  14    4   53 1
  15    5   32 am
  16    6   30 1
  17    6   31 1
  18    6   10 1
  19    7    8 1
  20    7   19 1
  21    7   54 1
  22    8    9 ar
  23    8   11 ar
  24    9   10 1
  25    9   14 ar
  26   10   55 1
  27   10   56 1
  28   11   12 ar
  29   11   21 1
  30   12   13 ar
  31   12   23 1
  32   13   14 ar
  33   13   57 1
  34   14   58 1
  35   15   16 1
  36   16   17 ar
  37   16   24 ar
  38   17   18 ar
  39   17   59 1
  40   18   19 ar
  41   18   26 ar
  42   19   20 ar
  43   20   28 ar
  44   21   22 1
  45   22   23 1
  46   22   60 1
  47   22   61 1
  48   24   25 ar
  49   24   29 1
  50   25   26 ar
  51   25   62 1
  52   26   27 ar
  53   27   28 ar
  54   28   63 1
  55   29   39 1
  56   30   64 1
  57   30   65 1
  58   31   66 1
  59   31   67 1
  60   31   68 1
  61   32   33 2
  62   32   34 1
  63   34   35 1
  64   35   36 1
  65   35   37 1
  66   35   38 1
  67   36   69 1
  68   36   70 1
  69   36   71 1
  70   37   72 1
  71   37   73 1
  72   37   74 1
  73   38   75 1
  74   38   76 1
  75   38   77 1
  76   39   40 1
  77   39   45 2
  78   40   41 1
  79   41   42 1
  80   41   43 1
  81   41   44 1
  82   42   78 1
  83   42   79 1
  84   42   80 1
  85   43   81 1
  86   43   82 1
  87   43   83 1
  88   44   84 1
  89   44   85 1
  90   44   86 1

#	End of record

