#	Name: ASD01209212
#	Creating user name:	WinNT
#	Creation time:	15. 06. 2019 19:11

#	Modifying user name:	WinNT
#	Modification time:	15. 06. 2019 19:11

#	Program:	/corina/corina34_cracker 3.40 0067  02.08.2006

@<TRIPOS>MOLECULE
ASD01209212
  67   69    0    0    0
SMALL
NO_CHARGES


@<TRIPOS>ATOM
   1 O1            -1.6448    13.9552     1.8900 O.3     
   2 O2            -0.1000    12.3295     3.2622 O.3     
   3 C3             7.1902     7.6294     2.0589 C.2     
   4 C4             6.3768     8.7549     2.3335 C.2     
   5 C5             5.2385     9.2326     1.5242 C.2     
   6 N6             4.5498    10.3255     1.9087 N.am    
   7 O7             4.9221     8.6402     0.5106 O.2     
   8 C8             3.4787    10.7750     1.1472 C.2     
   9 P9            -0.5916    12.7420     1.7856 P.3     
  10 O10           -1.2405    11.5796     1.1389 O.2     
  11 C11            0.8438    13.2673     0.7919 C.3     
  12 N12            2.7522    11.8117     1.4266 N.2     
  13 S13            2.9310    10.0459    -0.2990 S.3     
  14 C14            1.6647    11.2619    -0.4450 C.2     
  15 C15            1.7710    12.0965     0.5908 C.2     
  16 N16            6.8270     9.2961     3.4486 N.2     
  17 N17            7.8299     8.6262     3.8914 N.pl3   
  18 C18            8.0951     7.5815     3.0643 C.2     
  19 C19            9.1907     6.5609     3.2345 C.3     
  20 C20           10.5510     7.2386     3.0579 C.3     
  21 C21            8.5462     8.9293     5.0568 C.ar    
  22 C22            9.6787     9.7299     4.9890 C.ar    
  23 C23            8.1216     8.4345     6.2829 C.ar    
  24 C24            8.8265     8.7398     7.4307 C.ar    
  25 C25            9.9538     9.5376     7.3599 C.ar    
  26 C26           10.3794    10.0315     6.1404 C.ar    
  27 C27           -2.9224    13.8249     2.5168 C.3     
  28 C28           -3.6661    15.1599     2.4412 C.3     
  29 C29           -0.9744    11.7749     4.2470 C.3     
  30 C30           -0.1881    11.4998     5.5303 C.3     
  31 C31            9.1040     5.9481     4.6337 C.3     
  32 C32            9.0295     5.4597     2.1845 C.3     
  33 S33           10.8500     9.9252     8.8266 S.o2    
  34 O34           11.4863    11.1613     8.5321 O.2     
  35 O35            9.8837     9.8275     9.8639 O.2     
  36 C36           12.0766     8.5967     8.9720 C.3     
  37 H37            7.1038     6.9489     1.2248 H       
  38 H38            4.8021    10.7981     2.7174 H       
  39 H39            0.5015    13.6303    -0.1771 H       
  40 H40            1.3736    14.0651     1.3124 H       
  41 H41            0.9328    11.3236    -1.2368 H       
  42 H42           10.6659     8.0231     3.8059 H       
  43 H43           11.3434     6.5004     3.1810 H       
  44 H44           10.6128     7.6752     2.0611 H       
  45 H45           10.0116    10.1159     4.0369 H       
  46 H46            7.2409     7.8119     6.3389 H       
  47 H47            8.4969     8.3552     8.3845 H       
  48 H48           11.2599    10.6547     6.0884 H       
  49 H49           -3.5018    13.0568     2.0045 H       
  50 H50           -2.7878    13.5426     3.5609 H       
  51 H51           -3.0868    15.9280     2.9535 H       
  52 H52           -3.8007    15.4422     1.3970 H       
  53 H53           -4.6406    15.0605     2.9192 H       
  54 H54           -1.7783    12.4803     4.4576 H       
  55 H55           -1.3978    10.8426     3.8733 H       
  56 H56           -0.8552    11.0768     6.2815 H       
  57 H57            0.6157    10.7945     5.3197 H       
  58 H58            0.2352    12.4322     5.9040 H       
  59 H59            8.0939     5.5761     4.8054 H       
  60 H60            9.8132     5.1243     4.7141 H       
  61 H61            9.3430     6.7073     5.3783 H       
  62 H62            9.1766     5.8814     1.1902 H       
  63 H63            9.7688     4.6785     2.3609 H       
  64 H64            8.0282     5.0348     2.2545 H       
  65 H65           12.7183     8.5967     8.0909 H       
  66 H66           12.6830     8.7580     9.8632 H       
  67 H67           11.5654     7.6371     9.0491 H       
@<TRIPOS>BOND
   1    1   27 1
   2    1    9 1
   3    2   29 1
   4    2    9 1
   5    3    4 1
   6    3   18 2
   7    3   37 1
   8    4    5 1
   9    4   16 2
  10    5    6 am
  11    5    7 2
  12    6    8 1
  13    6   38 1
  14    8   12 2
  15    8   13 1
  16    9   10 2
  17    9   11 1
  18   11   15 1
  19   11   39 1
  20   11   40 1
  21   12   15 1
  22   13   14 1
  23   14   15 2
  24   14   41 1
  25   16   17 1
  26   17   18 1
  27   17   21 1
  28   18   19 1
  29   19   20 1
  30   19   31 1
  31   19   32 1
  32   20   42 1
  33   20   43 1
  34   20   44 1
  35   21   22 ar
  36   21   23 ar
  37   22   26 ar
  38   22   45 1
  39   23   24 ar
  40   23   46 1
  41   24   25 ar
  42   24   47 1
  43   25   26 ar
  44   25   33 1
  45   26   48 1
  46   27   28 1
  47   27   49 1
  48   27   50 1
  49   28   51 1
  50   28   52 1
  51   28   53 1
  52   29   30 1
  53   29   54 1
  54   29   55 1
  55   30   56 1
  56   30   57 1
  57   30   58 1
  58   31   59 1
  59   31   60 1
  60   31   61 1
  61   32   62 1
  62   32   63 1
  63   32   64 1
  64   33   34 2
  65   33   35 2
  66   33   36 1
  67   36   65 1
  68   36   66 1
  69   36   67 1

#	End of record

