#	Name: ASD01917656
#	Creating user name:	WinNT
#	Creation time:	15. 06. 2019 20:09

#	Modifying user name:	WinNT
#	Modification time:	15. 06. 2019 20:09

#	Program:	/corina/corina34_cracker 3.40 0067  02.08.2006

@<TRIPOS>MOLECULE
ASD01917656
  59   63    0    0    0
SMALL
NO_CHARGES


@<TRIPOS>ATOM
   1 C1            -0.0167     1.3807     0.0096 C.ar    
   2 C2             0.0021    -0.0041     0.0020 C.ar    
   3 C3            -1.1969    -0.7131     0.0097 C.ar    
   4 C4            -2.4087    -0.0249     0.0249 C.ar    
   5 C5            -1.1840    -2.1966     0.0011 C.2     
   6 N6            -0.0870    -2.9809    -0.0136 N.2     
   7 C7            -2.2750    -3.0061     0.0125 C.2     
   8 N8            -1.8102    -4.2935    -0.0016 N.pl3   
   9 C9            -0.4527    -4.2323    -0.0174 C.2     
  10 C10           -2.5901    -5.4594     0.0033 C.ar    
  11 C11           -3.6052    -5.6126     0.9377 C.ar    
  12 C12           -4.3724    -6.7610     0.9407 C.ar    
  13 C13           -3.1208    -7.6061    -0.9239 C.ar    
  14 C14           -2.3516    -6.4590    -0.9299 C.ar    
  15 C15            0.4780    -5.4174    -0.0371 C.3     
  16 C16            0.7712    -5.8022    -1.4643 C.2     
  17 N17            1.5866    -6.8424    -1.7279 N.am    
  18 O18            0.2735    -5.1757    -2.3758 O.2     
  19 C19            1.8860    -7.2347    -3.1135 C.3     
  20 C20            2.2054    -7.6117    -0.6377 C.3     
  21 C21            3.7128    -7.6999    -0.8989 C.3     
  22 N22            3.9424    -8.2375    -2.2466 N.3     
  23 C23            3.4066    -7.3385    -3.2722 C.3     
  24 C24            5.2834    -8.4832    -2.4591 C.ar    
  25 N25            5.6949    -8.9745    -3.6248 N.ar    
  26 N26            6.1689    -8.2244    -1.5007 N.ar    
  27 C27            7.4516    -8.4609    -1.7078 C.ar    
  28 N28            7.8564    -8.9544    -2.8669 N.ar    
  29 C29            6.9792    -9.2085    -3.8244 C.ar    
  30 C30           -4.1296    -7.7594     0.0123 C.ar    
  31 C31           -2.4181     1.3557     0.0324 C.ar    
  32 C32           -1.2281     2.0587     0.0306 C.ar    
  33 F33           -4.8810    -8.8821     0.0167 F       
  34 O34            1.1510     2.0761     0.0022 O.3     
  35 C35            1.0570     3.5019     0.0108 C.3     
  36 H36            0.9437    -0.5328    -0.0102 H       
  37 H37           -3.3402    -0.5714     0.0305 H       
  38 H38           -3.3089    -2.6943     0.0298 H       
  39 H39           -3.7947    -4.8343     1.6621 H       
  40 H40           -5.1620    -6.8806     1.6677 H       
  41 H41           -2.9357    -8.3838    -1.6501 H       
  42 H42           -1.5651    -6.3396    -1.6605 H       
  43 H43            1.4084    -5.1572     0.4676 H       
  44 H44            0.0086    -6.2566     0.4763 H       
  45 H45            1.4288    -8.2007    -3.3275 H       
  46 H46            1.4968    -6.4822    -3.7993 H       
  47 H47            2.0273    -7.1083     0.3125 H       
  48 H48            1.7794    -8.6146    -0.6096 H       
  49 H49            4.1537    -6.7059    -0.8238 H       
  50 H50            4.1718    -8.3584    -0.1615 H       
  51 H51            3.6388    -7.7349    -4.2606 H       
  52 H52            3.8555    -6.3514    -3.1611 H       
  53 H53            8.1711    -8.2510    -0.9302 H       
  54 H54            7.3135    -9.6112    -4.7691 H       
  55 H55           -3.3579     1.8877     0.0443 H       
  56 H56           -1.2407     3.1386     0.0369 H       
  57 H57            0.5119     3.8354    -0.8723 H       
  58 H58            0.5289     3.8259     0.9076 H       
  59 H59            2.0585     3.9321     0.0035 H       
@<TRIPOS>BOND
   1    1    2 ar
   2    1   34 1
   3    1   32 ar
   4    2    3 ar
   5    2   36 1
   6    3    4 ar
   7    3    5 1
   8    4   31 ar
   9    4   37 1
  10    5    6 1
  11    5    7 2
  12    6    9 2
  13    7    8 1
  14    7   38 1
  15    8    9 1
  16    8   10 1
  17    9   15 1
  18   10   11 ar
  19   10   14 ar
  20   11   12 ar
  21   11   39 1
  22   12   30 ar
  23   12   40 1
  24   13   14 ar
  25   13   30 ar
  26   13   41 1
  27   14   42 1
  28   15   16 1
  29   15   43 1
  30   15   44 1
  31   16   17 am
  32   16   18 2
  33   17   19 1
  34   17   20 1
  35   19   23 1
  36   19   45 1
  37   19   46 1
  38   20   21 1
  39   20   47 1
  40   20   48 1
  41   21   22 1
  42   21   49 1
  43   21   50 1
  44   22   23 1
  45   22   24 1
  46   23   51 1
  47   23   52 1
  48   24   25 ar
  49   24   26 ar
  50   25   29 ar
  51   26   27 ar
  52   27   28 ar
  53   27   53 1
  54   28   29 ar
  55   29   54 1
  56   30   33 1
  57   31   32 ar
  58   31   55 1
  59   32   56 1
  60   34   35 1
  61   35   57 1
  62   35   58 1
  63   35   59 1

#	End of record

