#	Name: ASD01001150
#	Creating user name:	WinNT
#	Creation time:	15. 06. 2019 18:55

#	Modifying user name:	WinNT
#	Modification time:	15. 06. 2019 18:55

#	Program:	/corina/corina34_cracker 3.40 0067  02.08.2006

@<TRIPOS>MOLECULE
ASD01001150
  36   38    0    0    0
SMALL
NO_CHARGES


@<TRIPOS>ATOM
   1 C1             0.3633     1.5310     0.2527 C.2     
   2 N2             0.1270     0.2036     0.2627 N.am    
   3 C3             1.2797    -0.7117     0.2281 C.3     
   4 C4             2.6581    -0.0861     0.1833 C.2     
   5 C5             2.7425     1.2324     0.1781 C.2     
   6 N6             1.6079     2.0258     0.2124 N.am    
   7 S7            -0.9627     2.6134     0.2851 S.2     
   8 C8             4.0998     1.8857     0.1340 C.3     
   9 C9             1.2096    -1.5917     1.4495 C.ar    
  10 C10            1.6631    -2.8953     1.3880 C.ar    
  11 C11            1.5983    -3.7048     2.5125 C.ar    
  12 C12            1.0779    -3.2027     3.6968 C.ar    
  13 C13            0.6259    -1.8987     3.7531 C.ar    
  14 C14            0.6968    -1.0921     2.6321 C.ar    
  15 O15            2.0433    -4.9875     2.4544 O.3     
  16 O16           -0.4501    -2.6503    -0.1164 O.3     
  17 C17           -1.0339    -3.8550    -0.1532 C.2     
  18 C18           -2.3506    -3.7088     0.1144 C.2     
  19 C19           -2.5799    -2.3405     0.3253 C.2     
  20 C20           -1.3760    -1.7127     0.1739 C.2     
  21 C21           -1.1329    -0.2735     0.3039 C.2     
  22 O22           -2.0684     0.4909     0.4490 O.2     
  23 H23            1.1734    -1.3516    -0.6479 H       
  24 H24            3.5463    -0.6999     0.1568 H       
  25 H25            1.7200     2.9893     0.2070 H       
  26 H26            4.3947     2.0412    -0.9038 H       
  27 H27            4.0577     2.8462     0.6475 H       
  28 H28            4.8290     1.2422     0.6263 H       
  29 H29            2.0673    -3.2839     0.4649 H       
  30 H30            1.0261    -3.8310     4.5736 H       
  31 H31            0.2205    -1.5076     4.6746 H       
  32 H32            0.3473    -0.0713     2.6795 H       
  33 H33            2.9786    -5.0899     2.6776 H       
  34 H34           -0.5347    -4.7896    -0.3627 H       
  35 H35           -3.0878    -4.4969     0.1575 H       
  36 H36           -3.5249    -1.8741     0.5613 H       
@<TRIPOS>BOND
   1    1    2 am
   2    1    6 am
   3    1    7 2
   4    2    3 1
   5    2   21 am
   6    3    4 1
   7    3    9 1
   8    3   23 1
   9    4    5 2
  10    4   24 1
  11    5    6 1
  12    5    8 1
  13    6   25 1
  14    8   26 1
  15    8   27 1
  16    8   28 1
  17    9   10 ar
  18    9   14 ar
  19   10   11 ar
  20   10   29 1
  21   11   12 ar
  22   11   15 1
  23   12   13 ar
  24   12   30 1
  25   13   14 ar
  26   13   31 1
  27   14   32 1
  28   15   33 1
  29   16   17 1
  30   16   20 1
  31   17   18 2
  32   17   34 1
  33   18   19 1
  34   18   35 1
  35   19   20 2
  36   19   36 1
  37   20   21 1
  38   21   22 2

#	End of record

