#	Name: ASD01478044
#	Creating user name:	WinNT
#	Creation time:	15. 06. 2019 19:21

#	Modifying user name:	WinNT
#	Modification time:	15. 06. 2019 19:21

#	Program:	/corina/corina34_cracker 3.40 0067  02.08.2006

@<TRIPOS>MOLECULE
ASD01478044
  77   80    0    0    0
SMALL
NO_CHARGES


@<TRIPOS>ATOM
   1 C1             0.5526     0.7913     2.3385 C.3     
   2 C2             0.4967    -0.7258     2.6094 C.3     
   3 C3             2.0194     1.1774     2.6465 C.3     
   4 C4             2.8221    -0.0322     2.1107 C.3     
   5 C5             1.9267    -1.2588     2.4339 C.3     
   6 C6            -0.8936     2.6429     2.7582 C.2     
   7 O7            -0.3558     1.4993     3.2227 O.3     
   8 N8            -1.7448     3.3489     3.5286 N.am    
   9 O9            -0.6116     3.0385     1.6445 O.2     
  10 C10           -3.5765     4.2717     2.1964 C.3     
  11 C11           -2.3300     4.5933     3.0232 C.3     
  12 C12           -2.7166     5.4902     4.2009 C.3     
  13 C13           -3.2117     6.8386     3.6740 C.3     
  14 N14           -3.4426     7.7477     4.7993 N.am    
  15 S15           -2.2576     8.8067     5.2648 S.o2    
  16 C16           -2.5002    10.2946     4.3526 C.ar    
  17 C17           -3.3081    11.2935     4.8636 C.ar    
  18 C18           -3.4999    12.4609     4.1503 C.ar    
  19 C19           -2.8809    12.6306     2.9204 C.ar    
  20 C20           -2.0707    11.6268     2.4098 C.ar    
  21 C21           -1.8777    10.4635     3.1296 C.ar    
  22 O22           -2.5150     9.1240     6.6258 O.2     
  23 O23           -1.0276     8.2559     4.8144 O.2     
  24 C24           -4.7218     7.7199     5.5129 C.3     
  25 C25           -5.8444     8.1442     4.5640 C.3     
  26 C26           -7.1948     7.9719     5.2623 C.3     
  27 C27           -5.6554     9.6116     4.1741 C.3     
  28 O28           -3.7552     4.8634     4.9562 O.3     
  29 O29            3.9929    -0.2024     2.9283 O.3     
  30 C30            3.8480    -1.4513     3.6248 C.3     
  31 O31            2.4288    -1.6973     3.7172 O.3     
  32 O32           -3.0683    13.7779     2.2166 O.3     
  33 C33           -2.3999    13.8835     0.9580 C.3     
  34 C34           -3.1783     3.4914     0.9701 C.ar    
  35 C35           -3.1338     2.1105     1.0138 C.ar    
  36 C36           -2.7686     1.3948    -0.1111 C.ar    
  37 C37           -2.4483     2.0601    -1.2797 C.ar    
  38 C38           -2.4937     3.4410    -1.3237 C.ar    
  39 C39           -2.8631     4.1565    -0.2001 C.ar    
  40 H40            0.3135     1.0018     1.2961 H       
  41 H41            0.1520    -0.9106     3.6268 H       
  42 H42           -0.1713    -1.2078     1.8956 H       
  43 H43            2.2969     2.0887     2.1168 H       
  44 H44            2.1694     1.2939     3.7198 H       
  45 H45            3.0511     0.0542     1.0485 H       
  46 H46            1.9883    -2.0327     1.6688 H       
  47 H47           -1.9699     3.0332     4.4177 H       
  48 H48           -4.2671     3.6787     2.7959 H       
  49 H49           -4.0618     5.1999     1.8948 H       
  50 H50           -1.6019     5.1092     2.3973 H       
  51 H51           -1.8470     5.6467     4.8392 H       
  52 H52           -2.4614     7.2666     3.0092 H       
  53 H53           -4.1430     6.6948     3.1261 H       
  54 H54           -3.7900    11.1608     5.8209 H       
  55 H55           -4.1314    13.2407     4.5497 H       
  56 H56           -1.5878    11.7565     1.4526 H       
  57 H57           -1.2470     9.6818     2.7326 H       
  58 H58           -4.9141     6.7099     5.8747 H       
  59 H59           -4.6813     8.4070     6.3581 H       
  60 H60           -5.8169     7.5238     3.6682 H       
  61 H61           -7.2224     8.5923     6.1581 H       
  62 H62           -7.9946     8.2742     4.5863 H       
  63 H63           -7.3295     6.9265     5.5400 H       
  64 H64           -6.4513     9.9119     3.4926 H       
  65 H65           -5.6899    10.2326     5.0692 H       
  66 H66           -4.6903     9.7355     3.6828 H       
  67 H67           -4.5905     4.7740     4.4773 H       
  68 H68            4.3314    -2.2514     3.0644 H       
  69 H69            4.2812    -1.3768     4.6223 H       
  70 H70           -1.3234    13.8061     1.1107 H       
  71 H71           -2.7325    13.0795     0.3014 H       
  72 H72           -2.6339    14.8454     0.5019 H       
  73 H73           -3.3841     1.5908     1.9268 H       
  74 H74           -2.7331     0.3160    -0.0768 H       
  75 H75           -2.1622     1.5010    -2.1583 H       
  76 H76           -2.2431     3.9607    -2.2366 H       
  77 H77           -2.9022     5.2352    -0.2354 H       
@<TRIPOS>BOND
   1    1    2 1
   2    1    3 1
   3    1    7 1
   4    1   40 1
   5    2    5 1
   6    2   41 1
   7    2   42 1
   8    3    4 1
   9    3   43 1
  10    3   44 1
  11    4    5 1
  12    4   29 1
  13    4   45 1
  14    5   31 1
  15    5   46 1
  16    6    7 1
  17    6    8 am
  18    6    9 2
  19    8   11 1
  20    8   47 1
  21   10   11 1
  22   10   34 1
  23   10   48 1
  24   10   49 1
  25   11   12 1
  26   11   50 1
  27   12   13 1
  28   12   28 1
  29   12   51 1
  30   13   14 1
  31   13   52 1
  32   13   53 1
  33   14   15 am
  34   14   24 1
  35   15   16 1
  36   15   22 2
  37   15   23 2
  38   16   17 ar
  39   16   21 ar
  40   17   18 ar
  41   17   54 1
  42   18   19 ar
  43   18   55 1
  44   19   20 ar
  45   19   32 1
  46   20   21 ar
  47   20   56 1
  48   21   57 1
  49   24   25 1
  50   24   58 1
  51   24   59 1
  52   25   26 1
  53   25   27 1
  54   25   60 1
  55   26   61 1
  56   26   62 1
  57   26   63 1
  58   27   64 1
  59   27   65 1
  60   27   66 1
  61   28   67 1
  62   29   30 1
  63   30   31 1
  64   30   68 1
  65   30   69 1
  66   32   33 1
  67   33   70 1
  68   33   71 1
  69   33   72 1
  70   34   35 ar
  71   34   39 ar
  72   35   36 ar
  73   35   73 1
  74   36   37 ar
  75   36   74 1
  76   37   38 ar
  77   37   75 1
  78   38   39 ar
  79   38   76 1
  80   39   77 1

#	End of record

