#	Name: ASD01208483
#	Creating user name:	WinNT
#	Creation time:	15. 06. 2019 19:09

#	Modifying user name:	WinNT
#	Modification time:	15. 06. 2019 19:09

#	Program:	/corina/corina34_cracker 3.40 0067  02.08.2006

@<TRIPOS>MOLECULE
ASD01208483
  72   75    0    0    0
SMALL
NO_CHARGES


@<TRIPOS>ATOM
   1 N1             0.1140     1.2169     0.2129 N.am    
   2 C2             0.0734    -0.1563     0.1125 C.2     
   3 C3             1.3561    -0.6190     0.0953 C.2     
   4 C4             2.2114     0.4848     0.1865 C.2     
   5 C5             1.4366     1.6077     0.2583 C.2     
   6 C6            -0.9540     2.0379     0.2539 C.2     
   7 O7            -1.4535     2.3316     1.3211 O.2     
   8 O8            -1.4670     2.5321    -0.8878 O.3     
   9 S9             3.6190     3.4734     0.4219 S.3     
  10 C10            1.9260     2.9895     0.3651 C.2     
  11 N11            1.1760     4.0559     0.4326 N.2     
  12 C12            1.7916     5.2119     0.5242 C.2     
  13 C13            3.1279     5.1620     0.5378 C.2     
  14 C14           -1.1475    -0.9840     0.0371 C.ar    
  15 C15           -2.4059    -0.3798     0.0653 C.ar    
  16 C16           -3.5479    -1.1599    -0.0056 C.ar    
  17 C17           -3.4427    -2.5405    -0.1042 C.ar    
  18 C18           -2.1943    -3.1450    -0.1326 C.ar    
  19 C19           -1.0467    -2.3723    -0.0685 C.ar    
  20 O20           -2.0973    -4.4971    -0.2293 O.3     
  21 C21           -0.7857    -5.0445    -0.3779 C.3     
  22 C22           -0.8766    -6.4062    -1.0695 C.3     
  23 C23           -0.1448    -5.2146     1.0009 C.3     
  24 O24           -1.5756    -7.3234    -0.2255 O.3     
  25 C25           -1.7164    -8.6325    -0.7808 C.3     
  26 O26           -4.7732    -0.5730     0.0219 O.3     
  27 C27           -5.5614    -0.7943     1.1039 C.ar    
  28 C28           -5.0603    -1.4956     2.1949 C.ar    
  29 C29           -5.8569    -1.7226     3.2945 C.ar    
  30 C30           -7.1712    -1.2466     3.3133 C.ar    
  31 C31           -7.6710    -0.5416     2.2145 C.ar    
  32 C32           -6.8662    -0.3143     1.1209 C.ar    
  33 C33           -8.0281    -1.4880     4.4889 C.2     
  34 O34           -7.5921    -2.1013     5.4429 O.2     
  35 O35           -9.2947    -1.0284     4.5051 O.3     
  36 C36          -10.0804    -1.3028     5.6950 C.3     
  37 C37           -2.6174     3.4099    -0.7679 C.3     
  38 C38           -2.2425     4.6297     0.0762 C.3     
  39 C39           -3.0563     3.8685    -2.1600 C.3     
  40 C40           -3.7657     2.6565    -0.0936 C.3     
  41 H41            1.6582    -1.6535     0.0244 H       
  42 H42            3.2909     0.4545     0.1985 H       
  43 H43            1.2521     6.1455     0.5844 H       
  44 H44            3.7921     6.0108     0.6075 H       
  45 H45           -2.4885     0.6942     0.1428 H       
  46 H46           -4.3354    -3.1459    -0.1586 H       
  47 H47           -0.0753    -2.8434    -0.0956 H       
  48 H48           -0.1770    -4.3706    -0.9809 H       
  49 H49           -1.4125    -6.2996    -2.0127 H       
  50 H50            0.1276    -6.7833    -1.2629 H       
  51 H51           -0.7535    -5.8884     1.6039 H       
  52 H52            0.8557    -5.6320     0.8876 H       
  53 H53           -0.0800    -4.2444     1.4936 H       
  54 H54           -2.2698    -8.5721    -1.7179 H       
  55 H55           -0.7296    -9.0558    -0.9681 H       
  56 H56           -2.2574    -9.2682    -0.0798 H       
  57 H57           -4.0448    -1.8630     2.1795 H       
  58 H58           -5.4671    -2.2681     4.1413 H       
  59 H59           -8.6860    -0.1725     2.2250 H       
  60 H60           -7.2502     0.2338     0.2733 H       
  61 H61          -11.0778    -0.8791     5.5775 H       
  62 H62          -10.1580    -2.3805     5.8385 H       
  63 H63           -9.5951    -0.8548     6.5621 H       
  64 H64           -1.4244     5.1664    -0.4042 H       
  65 H65           -3.1061     5.2886     0.1662 H       
  66 H66           -1.9298     4.3030     1.0680 H       
  67 H67           -3.3234     2.9995    -2.7614 H       
  68 H68           -3.9199     4.5274    -2.0700 H       
  69 H69           -2.2382     4.4052    -2.6404 H       
  70 H70           -3.4530     2.3298     0.8982 H       
  71 H71           -4.6293     3.3154    -0.0036 H       
  72 H72           -4.0328     1.7875    -0.6950 H       
@<TRIPOS>BOND
   1    1    2 1
   2    1    5 1
   3    1    6 am
   4    2    3 2
   5    2   14 1
   6    3    4 1
   7    3   41 1
   8    4    5 2
   9    4   42 1
  10    5   10 1
  11    6    7 2
  12    6    8 1
  13    8   37 1
  14    9   10 1
  15    9   13 1
  16   10   11 2
  17   11   12 1
  18   12   13 2
  19   12   43 1
  20   13   44 1
  21   14   15 ar
  22   14   19 ar
  23   15   16 ar
  24   15   45 1
  25   16   17 ar
  26   16   26 1
  27   17   18 ar
  28   17   46 1
  29   18   19 ar
  30   18   20 1
  31   19   47 1
  32   20   21 1
  33   21   22 1
  34   21   23 1
  35   21   48 1
  36   22   24 1
  37   22   49 1
  38   22   50 1
  39   23   51 1
  40   23   52 1
  41   23   53 1
  42   24   25 1
  43   25   54 1
  44   25   55 1
  45   25   56 1
  46   26   27 1
  47   27   28 ar
  48   27   32 ar
  49   28   29 ar
  50   28   57 1
  51   29   30 ar
  52   29   58 1
  53   30   31 ar
  54   30   33 1
  55   31   32 ar
  56   31   59 1
  57   32   60 1
  58   33   34 2
  59   33   35 1
  60   35   36 1
  61   36   61 1
  62   36   62 1
  63   36   63 1
  64   37   38 1
  65   37   40 1
  66   37   39 1
  67   38   64 1
  68   38   65 1
  69   38   66 1
  70   39   67 1
  71   39   68 1
  72   39   69 1
  73   40   70 1
  74   40   71 1
  75   40   72 1

#	End of record

