#	Name: ASD01910617
#	Creating user name:	WinNT
#	Creation time:	15. 06. 2019 19:56

#	Modifying user name:	WinNT
#	Modification time:	15. 06. 2019 19:56

#	Program:	/corina/corina34_cracker 3.40 0067  02.08.2006

@<TRIPOS>MOLECULE
ASD01910617
  47   50    0    0    0
SMALL
NO_CHARGES


@<TRIPOS>ATOM
   1 C1             0.9095     0.9325    -0.7006 C.2     
   2 N2             0.8495    -0.3616    -0.9035 N.2     
   3 C3            -0.3414    -0.7500    -0.4140 C.2     
   4 N4            -0.9340     0.3080     0.0528 N.2     
   5 O5            -0.2297     1.2842    -0.0968 O.3     
   6 C6            -0.8884    -2.1543    -0.4085 C.3     
   7 C7            -1.1501    -2.5949     1.0335 C.3     
   8 C8            -1.6747    -4.0325     1.0422 C.3     
   9 C9            -2.9966    -4.0942     0.2704 C.3     
  10 N10           -2.7865    -3.5366    -1.0726 N.am    
  11 C11           -2.2014    -2.1946    -1.1968 C.3     
  12 C12           -3.1240    -4.2428    -2.1698 C.2     
  13 C13           -3.6330    -5.6228    -2.0323 C.ar    
  14 O14           -3.0096    -3.7442    -3.2726 O.2     
  15 C15           -4.6754    -5.9001    -1.1453 C.ar    
  16 C16           -5.1469    -7.1893    -1.0213 C.ar    
  17 C17           -4.5881    -8.2100    -1.7753 C.ar    
  18 C18           -3.5527    -7.9403    -2.6571 C.ar    
  19 C19           -3.0775    -6.6536    -2.7932 C.ar    
  20 F20           -5.0539    -9.4720    -1.6499 F       
  21 C21            2.0481     1.8473    -1.0716 C.3     
  22 C22            1.5577     2.9297    -2.0491 C.3     
  23 C23            1.7912     4.2880    -1.3560 C.3     
  24 C24            2.9178     4.0031    -0.3319 C.3     
  25 C25            2.5626     2.5856     0.1815 C.3     
  26 H26           -0.1660    -2.8279    -0.8694 H       
  27 H27           -0.2221    -2.5435     1.6030 H       
  28 H28           -1.8906    -1.9353     1.4861 H       
  29 H29           -0.9453    -4.6888     0.5676 H       
  30 H30           -1.8387    -4.3537     2.0709 H       
  31 H31           -3.3240    -5.1306     0.1887 H       
  32 H32           -3.7532    -3.5101     0.7943 H       
  33 H33           -2.8931    -1.4556    -0.7925 H       
  34 H34           -2.0041    -1.9777    -2.2466 H       
  35 H35           -5.1111    -5.1058    -0.5573 H       
  36 H36           -5.9527    -7.4050    -0.3353 H       
  37 H37           -3.1208    -8.7391    -3.2418 H       
  38 H38           -2.2711    -6.4446    -3.4806 H       
  39 H39            2.8557     1.2728    -1.5252 H       
  40 H40            2.1278     2.8810    -2.9768 H       
  41 H41            0.4961     2.7933    -2.2552 H       
  42 H42            2.1143     5.0354    -2.0806 H       
  43 H43            0.8858     4.6164    -0.8456 H       
  44 H44            3.8925     4.0043    -0.8197 H       
  45 H45            2.8913     4.7268     0.4827 H       
  46 H46            1.7818     2.6391     0.9401 H       
  47 H47            3.4487     2.0907     0.5789 H       
@<TRIPOS>BOND
   1    1    2 2
   2    1   21 1
   3    1    5 1
   4    2    3 1
   5    3    4 2
   6    3    6 1
   7    4    5 1
   8    6    7 1
   9    6   11 1
  10    6   26 1
  11    7    8 1
  12    7   27 1
  13    7   28 1
  14    8    9 1
  15    8   29 1
  16    8   30 1
  17    9   10 1
  18    9   31 1
  19    9   32 1
  20   10   11 1
  21   10   12 am
  22   11   33 1
  23   11   34 1
  24   12   13 1
  25   12   14 2
  26   13   15 ar
  27   13   19 ar
  28   15   16 ar
  29   15   35 1
  30   16   17 ar
  31   16   36 1
  32   17   18 ar
  33   17   20 1
  34   18   19 ar
  35   18   37 1
  36   19   38 1
  37   21   22 1
  38   21   25 1
  39   21   39 1
  40   22   23 1
  41   22   40 1
  42   22   41 1
  43   23   24 1
  44   23   42 1
  45   23   43 1
  46   24   25 1
  47   24   44 1
  48   24   45 1
  49   25   46 1
  50   25   47 1

#	End of record

