#	Name: ASD06170145
#	Creating user name:	WinNT
#	Creation time:	15. 06. 2019 21:05

#	Modifying user name:	WinNT
#	Modification time:	15. 06. 2019 21:05

#	Program:	/corina/corina34_cracker 3.40 0067  02.08.2006

@<TRIPOS>MOLECULE
ASD06170145
  73   77    0    0    0
SMALL
NO_CHARGES


@<TRIPOS>ATOM
   1 C1            -0.8020     1.1964    -3.7767 C.ar    
   2 C2             0.1105     1.1389    -2.7197 C.ar    
   3 C3             1.3351     0.4701    -2.8973 C.ar    
   4 C4             1.5977    -0.1143    -4.1257 C.ar    
   5 C5             0.6493    -0.0208    -5.1333 C.ar    
   6 N6            -0.4848     0.6055    -4.9487 N.ar    
   7 C7            -1.9734     1.8924    -3.4382 C.2     
   8 C8            -2.0201     2.3729    -2.1907 C.2     
   9 S9            -0.5466     1.9803    -1.3218 S.3     
  10 C10           -3.1484     3.1310    -1.6268 C.2     
  11 O11           -4.0638     3.4838    -2.3457 O.2     
  12 N12           -3.1673     3.4344    -0.3138 N.am    
  13 C13           -4.2295     4.2869     0.2259 C.3     
  14 C14           -2.1256     2.9117     0.5739 C.3     
  15 O15            2.2397     0.3994    -1.8879 O.3     
  16 C16            3.3583    -0.3488    -2.0843 C.ar    
  17 C17            4.4752     0.2166    -2.6881 C.ar    
  18 C18            5.6120    -0.5440    -2.8871 C.ar    
  19 C19            5.6370    -1.8727    -2.4834 C.ar    
  20 C20            4.5205    -2.4359    -1.8804 C.ar    
  21 C21            3.3864    -1.6737    -1.6770 C.ar    
  22 C22            8.0000    -2.0546    -2.7034 C.2     
  23 O23            8.1036    -0.8690    -2.4495 O.2     
  24 N24            6.7882    -2.6443    -2.6850 N.am    
  25 N25           11.2976    -3.4141    -3.4210 N.pl3   
  26 N26           10.5367    -4.5750    -3.5877 N.am    
  27 C27            9.2411    -4.2761    -3.3586 C.2     
  28 C28            9.1947    -2.8426    -3.0297 C.2     
  29 C29           10.4962    -2.3841    -3.0889 C.2     
  30 C30           11.0349    -5.8351    -3.9346 C.ar    
  31 C31           12.0793    -6.3942    -3.2097 C.ar    
  32 C32           12.5687    -7.6388    -3.5545 C.ar    
  33 C33           12.0200    -8.3282    -4.6203 C.ar    
  34 C34           10.9803    -7.7741    -5.3444 C.ar    
  35 C35           10.4825    -6.5323    -5.0012 C.ar    
  36 O36            8.2966    -5.0414    -3.4135 O.2     
  37 C37           10.9442    -0.9696    -2.8252 C.3     
  38 C38           12.7518    -3.3317    -3.5783 C.3     
  39 C39           13.0863    -2.8880    -5.0038 C.3     
  40 C40           14.6025    -2.9219    -5.2059 C.3     
  41 C41           12.4173    -3.8343    -6.0027 C.3     
  42 O42           12.6074    -1.5580    -5.2134 O.3     
  43 F43            4.4495     1.5090    -3.0808 F       
  44 H44            2.5282    -0.6352    -4.2964 H       
  45 H45            0.8513    -0.4751    -6.0920 H       
  46 H46           -2.7833     2.0310    -4.1391 H       
  47 H47           -5.1971     3.8168     0.0503 H       
  48 H48           -4.0793     4.4202     1.2972 H       
  49 H49           -4.2023     5.2580    -0.2684 H       
  50 H50           -1.2458     3.5527     0.5186 H       
  51 H51           -2.4973     2.8924     1.5984 H       
  52 H52           -1.8587     1.9009     0.2651 H       
  53 H53            6.4801    -0.1055    -3.3565 H       
  54 H54            4.5400    -3.4691    -1.5665 H       
  55 H55            2.5196    -2.1114    -1.2041 H       
  56 H56            6.7134    -3.6031    -2.8113 H       
  57 H57           12.5086    -5.8561    -2.3774 H       
  58 H58           13.3811    -8.0740    -2.9914 H       
  59 H59           12.4044    -9.3013    -4.8879 H       
  60 H60           10.5542    -8.3149    -6.1765 H       
  61 H61            9.6676    -6.1021    -5.5643 H       
  62 H62           10.9284    -0.4038    -3.7568 H       
  63 H63           10.2711    -0.5034    -2.1056 H       
  64 H64           11.9570    -0.9783    -2.4225 H       
  65 H65           13.1535    -2.6082    -2.8689 H       
  66 H66           13.1937    -4.3100    -3.3891 H       
  67 H67           14.9678    -3.9363    -5.0460 H       
  68 H68           14.8408    -2.6057    -6.2215 H       
  69 H69           15.0791    -2.2477    -4.4943 H       
  70 H70           11.3372    -3.8101    -5.8587 H       
  71 H71           12.6556    -3.5182    -7.0183 H       
  72 H72           12.7826    -4.8487    -5.8428 H       
  73 H73           12.9900    -0.9031    -4.6136 H       
@<TRIPOS>BOND
   1    1    2 ar
   2    1    6 ar
   3    1    7 1
   4    2    3 ar
   5    2    9 1
   6    3    4 ar
   7    3   15 1
   8    4    5 ar
   9    4   44 1
  10    5    6 ar
  11    5   45 1
  12    7    8 2
  13    7   46 1
  14    8    9 1
  15    8   10 1
  16   10   11 2
  17   10   12 am
  18   12   13 1
  19   12   14 1
  20   13   47 1
  21   13   48 1
  22   13   49 1
  23   14   50 1
  24   14   51 1
  25   14   52 1
  26   15   16 1
  27   16   17 ar
  28   16   21 ar
  29   17   18 ar
  30   17   43 1
  31   18   19 ar
  32   18   53 1
  33   19   20 ar
  34   19   24 1
  35   20   21 ar
  36   20   54 1
  37   21   55 1
  38   22   23 2
  39   22   24 am
  40   22   28 1
  41   24   56 1
  42   25   26 1
  43   25   29 1
  44   25   38 1
  45   26   27 am
  46   26   30 1
  47   27   28 1
  48   27   36 2
  49   28   29 2
  50   29   37 1
  51   30   31 ar
  52   30   35 ar
  53   31   32 ar
  54   31   57 1
  55   32   33 ar
  56   32   58 1
  57   33   34 ar
  58   33   59 1
  59   34   35 ar
  60   34   60 1
  61   35   61 1
  62   37   62 1
  63   37   63 1
  64   37   64 1
  65   38   39 1
  66   38   65 1
  67   38   66 1
  68   39   40 1
  69   39   41 1
  70   39   42 1
  71   40   67 1
  72   40   68 1
  73   40   69 1
  74   41   70 1
  75   41   71 1
  76   41   72 1
  77   42   73 1

#	End of record

