#	Name: ASD01882397
#	Creating user name:	WinNT
#	Creation time:	15. 06. 2019 19:44

#	Modifying user name:	WinNT
#	Modification time:	15. 06. 2019 19:44

#	Program:	/corina/corina34_cracker 3.40 0067  02.08.2006

@<TRIPOS>MOLECULE
ASD01882397
  51   55    0    0    0
SMALL
NO_CHARGES


@<TRIPOS>ATOM
   1 C1             1.6022     1.4746    -1.0549 C.2     
   2 C2             1.6523     0.0702    -1.0962 C.2     
   3 C3             1.2298    -0.6444    -0.0076 C.2     
   4 C4             0.7534     0.0388     1.1321 C.2     
   5 C5             0.7141     1.3856     1.1499 C.2     
   6 N6             1.1328     2.1075     0.0703 N.pl3   
   7 N7             1.6951     3.5769    -1.4012 N.2     
   8 N8             1.9337     2.4230    -1.9179 N.2     
   9 C9             1.2087     3.4432    -0.1954 C.2     
  10 N10            1.2694    -2.0366    -0.0247 N.pl3   
  11 C11            2.5490    -2.7542    -0.1285 C.3     
  12 C12            2.6139    -3.7982     0.9914 C.3     
  13 N13            1.4180    -4.6492     0.9331 N.3     
  14 C14            0.1966    -3.8691     1.1731 C.3     
  15 C15            0.0331    -2.8281     0.0667 C.3     
  16 C16            3.8643    -4.6617     0.8126 C.3     
  17 C17            1.5168    -5.7135     1.8321 C.ar    
  18 C18            1.7708    -5.4681     3.1752 C.ar    
  19 C19            1.8683    -6.5238     4.0639 C.ar    
  20 C20            1.7132    -7.8246     3.6150 C.ar    
  21 C21            1.4603    -8.0717     2.2761 C.ar    
  22 C22            1.3555    -7.0186     1.3851 C.ar    
  23 F23            1.3099    -9.3417     1.8407 F       
  24 F24            2.1154    -6.2856     5.3706 F       
  25 C25            0.8076     4.5606     0.7328 C.3     
  26 C26            2.0090     4.9702     1.5870 C.3     
  27 C27            1.8379     6.1740     2.5157 C.3     
  28 C28            1.9047     4.7611     3.0991 C.3     
  29 Cl29           2.2418    -0.7473    -2.5097 Cl      
  30 H30            0.4186    -0.5204     1.9933 H       
  31 H31            0.3475     1.8984     2.0268 H       
  32 H32            2.6126    -3.2513    -1.0965 H       
  33 H33            3.3737    -2.0497    -0.0206 H       
  34 H34            2.6547    -3.2938     1.9569 H       
  35 H35           -0.6658    -4.5357     1.1774 H       
  36 H36            0.2711    -3.3638     2.1360 H       
  37 H37           -0.8048    -2.1725     0.3036 H       
  38 H38           -0.1498    -3.3324    -0.8821 H       
  39 H39            4.7430    -4.0199     0.7492 H       
  40 H40            3.9662    -5.3342     1.6644 H       
  41 H41            3.7743    -5.2461    -0.1030 H       
  42 H42            1.8925    -4.4538     3.5257 H       
  43 H43            1.7900    -8.6476     4.3100 H       
  44 H44            1.1531    -7.2114     0.3419 H       
  45 H45            0.4697     5.4156     0.1472 H       
  46 H46           -0.0007     4.2220     1.3810 H       
  47 H47            2.9855     4.8259     1.1248 H       
  48 H48            2.7019     6.8214     2.6648 H       
  49 H49            0.8694     6.6741     2.5181 H       
  50 H50            0.9803     4.3318     3.4853 H       
  51 H51            2.8128     4.4791     3.6319 H       
@<TRIPOS>BOND
   1    1    2 1
   2    1    6 1
   3    1    8 2
   4    2    3 2
   5    2   29 1
   6    3    4 1
   7    3   10 1
   8    4    5 2
   9    4   30 1
  10    5    6 1
  11    5   31 1
  12    6    9 1
  13    7    8 1
  14    7    9 2
  15    9   25 1
  16   10   11 1
  17   10   15 1
  18   11   12 1
  19   11   32 1
  20   11   33 1
  21   12   13 1
  22   12   16 1
  23   12   34 1
  24   13   14 1
  25   13   17 1
  26   14   15 1
  27   14   35 1
  28   14   36 1
  29   15   37 1
  30   15   38 1
  31   16   39 1
  32   16   40 1
  33   16   41 1
  34   17   18 ar
  35   17   22 ar
  36   18   19 ar
  37   18   42 1
  38   19   20 ar
  39   19   24 1
  40   20   21 ar
  41   20   43 1
  42   21   22 ar
  43   21   23 1
  44   22   44 1
  45   25   26 1
  46   25   45 1
  47   25   46 1
  48   26   27 1
  49   26   28 1
  50   26   47 1
  51   27   28 1
  52   27   48 1
  53   27   49 1
  54   28   50 1
  55   28   51 1

#	End of record

