#	Name: ASD09800070
#	Creating user name:	WinNT
#	Creation time:	15. 06. 2019 21:24

#	Modifying user name:	WinNT
#	Modification time:	15. 06. 2019 21:24

#	Program:	/corina/corina34_cracker 3.40 0067  02.08.2006

@<TRIPOS>MOLECULE
ASD09800070
  74   77    0    0    0
SMALL
NO_CHARGES


@<TRIPOS>ATOM
   1 C1            -0.2545     1.4631    -2.2815 C.ar    
   2 C2            -0.5209     0.2576    -2.9009 C.ar    
   3 C3             0.3287    -0.8179    -2.7182 C.ar    
   4 C4             1.4476    -0.6906    -1.9153 C.ar    
   5 C5             1.7201     0.5118    -1.2936 C.ar    
   6 C6             0.8685     1.5944    -1.4749 C.ar    
   7 N7             1.1413     2.8131    -0.8470 N.pl3   
   8 S8             3.1455     0.6726    -0.2704 S.o2    
   9 O9             3.7761    -0.5986    -0.3455 O.2     
  10 O10            3.7935     1.8415    -0.7533 O.2     
  11 C11            2.4792     0.9553     1.3929 C.3     
  12 C12            1.5860    -0.2213     1.7913 C.3     
  13 C13            3.6329     1.0802     2.3901 C.3     
  14 C14            0.1005     3.6563    -0.4876 C.ar    
  15 N15           -1.9385     5.2807     0.2043 N.ar    
  16 C16           -0.7046     5.7374     0.3639 C.ar    
  17 C17            0.3640     4.9317     0.0196 C.ar    
  18 N18           -1.1622     3.2656    -0.6255 N.ar    
  19 C19           -2.1584     4.0690    -0.2835 C.ar    
  20 N20           -3.4632     3.6286    -0.4345 N.pl3   
  21 C21           -4.5300     4.5022    -0.1889 C.ar    
  22 C22           -6.6394     6.2308     0.2965 C.ar    
  23 C23           -5.4355     6.7228    -0.1728 C.ar    
  24 C24           -4.3813     5.8627    -0.4159 C.ar    
  25 C25           -5.7452     4.0066     0.2784 C.ar    
  26 C26           -6.7969     4.8753     0.5196 C.ar    
  27 C27           -7.7850     7.1738     0.5602 C.3     
  28 C28           -8.9956     6.7555    -0.2789 C.3     
  29 C29          -10.1738     7.6792     0.0384 C.3     
  30 N30          -10.4937     7.5928     1.4690 N.3     
  31 C31           -9.3621     8.0347     2.2938 C.3     
  32 C32           -8.1597     7.1216     2.0439 C.3     
  33 C33           -5.2705     8.2011    -0.4143 C.3     
  34 O34           -5.8988     2.6731     0.4970 O.3     
  35 C35           -7.2120     2.2170     0.8281 C.3     
  36 C36           -7.3396     0.7329     0.4785 C.3     
  37 C37           -7.4568     2.4111     2.3258 C.3     
  38 Cl38           1.9961     5.4908     0.2130 Cl      
  39 H39           -0.9163     2.3039    -2.4278 H       
  40 H40           -1.3940     0.1548    -3.5282 H       
  41 H41            0.1179    -1.7595    -3.2034 H       
  42 H42            2.1088    -1.5328    -1.7742 H       
  43 H43            2.0586     3.0690    -0.6626 H       
  44 H44            1.8933     1.8744     1.3983 H       
  45 H45            2.1889    -1.1262     1.8659 H       
  46 H46            1.1207    -0.0142     2.7550 H       
  47 H47            0.8119    -0.3615     1.0368 H       
  48 H48            4.2693     1.9185     2.1063 H       
  49 H49            3.2326     1.2501     3.3895 H       
  50 H50            4.2189     0.1611     2.3848 H       
  51 H51           -0.5360     6.7270     0.7622 H       
  52 H52           -3.6379     2.7152    -0.7103 H       
  53 H53           -3.4419     6.2497    -0.7821 H       
  54 H54           -7.7386     4.4944     0.8862 H       
  55 H55           -7.4901     8.1887     0.2935 H       
  56 H56           -8.7483     6.8317    -1.3377 H       
  57 H57           -9.2654     5.7266    -0.0407 H       
  58 H58           -9.9081     8.7061    -0.2129 H       
  59 H59          -11.0416     7.3751    -0.5469 H       
  60 H60          -11.3266     8.1195     1.6857 H       
  61 H61           -9.1002     9.0599     2.0319 H       
  62 H62           -9.6403     7.9888     3.3467 H       
  63 H63           -8.4164     6.0985     2.3186 H       
  64 H64           -7.3151     7.4593     2.6446 H       
  65 H65           -4.9965     8.6934     0.5188 H       
  66 H66           -4.4868     8.3631    -1.1544 H       
  67 H67           -6.2089     8.6161    -0.7821 H       
  68 H68           -7.9483     2.7881     0.2625 H       
  69 H69           -6.6032     0.1619     1.0440 H       
  70 H70           -8.3412     0.3850     0.7311 H       
  71 H71           -7.1652     0.5947    -0.5885 H       
  72 H72           -6.7204     1.8400     2.8913 H       
  73 H73           -7.3659     3.4684     2.5748 H       
  74 H74           -8.4584     2.0631     2.5783 H       
@<TRIPOS>BOND
   1    1    2 ar
   2    1    6 ar
   3    1   39 1
   4    2    3 ar
   5    2   40 1
   6    3    4 ar
   7    3   41 1
   8    4    5 ar
   9    4   42 1
  10    5    6 ar
  11    5    8 1
  12    6    7 1
  13    7   14 1
  14    7   43 1
  15    8    9 2
  16    8   10 2
  17    8   11 1
  18   11   12 1
  19   11   13 1
  20   11   44 1
  21   12   45 1
  22   12   46 1
  23   12   47 1
  24   13   48 1
  25   13   49 1
  26   13   50 1
  27   14   18 ar
  28   14   17 ar
  29   15   16 ar
  30   15   19 ar
  31   16   17 ar
  32   16   51 1
  33   17   38 1
  34   18   19 ar
  35   19   20 1
  36   20   21 1
  37   20   52 1
  38   21   25 ar
  39   21   24 ar
  40   22   23 ar
  41   22   26 ar
  42   22   27 1
  43   23   24 ar
  44   23   33 1
  45   24   53 1
  46   25   26 ar
  47   25   34 1
  48   26   54 1
  49   27   28 1
  50   27   32 1
  51   27   55 1
  52   28   29 1
  53   28   56 1
  54   28   57 1
  55   29   30 1
  56   29   58 1
  57   29   59 1
  58   30   31 1
  59   30   60 1
  60   31   32 1
  61   31   61 1
  62   31   62 1
  63   32   63 1
  64   32   64 1
  65   33   65 1
  66   33   66 1
  67   33   67 1
  68   34   35 1
  69   35   36 1
  70   35   37 1
  71   35   68 1
  72   36   69 1
  73   36   70 1
  74   36   71 1
  75   37   72 1
  76   37   73 1
  77   37   74 1

#	End of record

