#	Name: ASD05430373
#	Creating user name:	WinNT
#	Creation time:	15. 06. 2019 21:00

#	Modifying user name:	WinNT
#	Modification time:	15. 06. 2019 21:00

#	Program:	/corina/corina34_cracker 3.40 0067  02.08.2006

@<TRIPOS>MOLECULE
ASD05430373
  65   69    0    0    0
SMALL
NO_CHARGES


@<TRIPOS>ATOM
   1 C1            -0.8591     0.1123    -0.5343 C.ar    
   2 C2             0.1298     0.6963     0.2569 C.ar    
   3 C3            -0.1439     1.8536     0.9749 C.ar    
   4 C4            -1.3936     2.4297     0.9091 C.ar    
   5 C5            -2.3903     1.8495     0.1176 C.ar    
   6 C6            -2.1132     0.6878    -0.6096 C.ar    
   7 C7            -4.8191     1.6859    -0.0691 C.2     
   8 C8            -3.7261     2.4635     0.0461 C.2     
   9 N9            -7.2338     1.5937     0.2823 N.pl3   
  10 C10           -6.1583     2.2432    -0.3113 C.2     
  11 C11           -7.9378     2.6599     2.3245 C.ar    
  12 C12           -6.7311     2.2184     2.8346 C.ar    
  13 C13           -8.8133     3.3647     3.1293 C.ar    
  14 C14           -8.4829     3.6292     4.4449 C.ar    
  15 C15           -7.2746     3.1875     4.9569 C.ar    
  16 C16           -6.3987     2.4812     4.1500 C.ar    
  17 F17           -6.9504     3.4458     6.2428 F       
  18 O18           -0.5876    -1.0201    -1.2360 O.3     
  19 C19           -1.6473    -1.5638    -2.0256 C.3     
  20 C20            2.6021     0.7542     0.1551 C.2     
  21 N21            1.4021     0.1141     0.3282 N.pl3   
  22 C22            3.5651    -0.1746     0.3077 C.2     
  23 N23            2.9752    -1.3509     0.5669 N.2     
  24 C24            1.6799    -1.1912     0.5818 C.2     
  25 C25            5.0492     0.0660     0.2046 C.3     
  26 N26           -7.2223     0.2284     0.2724 N.3     
  27 C27           -5.9765    -0.3060     0.8370 C.3     
  28 C28           -4.7554     0.1693     0.0428 C.3     
  29 C29           -7.4716    -0.3096    -1.0710 C.3     
  30 C30           -8.2963     2.3780     0.8882 C.3     
  31 C31           -8.4932     3.7075     0.1673 C.3     
  32 C32           -7.7695     3.7545    -1.1709 C.3     
  33 N33           -6.3779     3.3019    -1.0324 N.2     
  34 C34           -9.6092     1.5963     0.8541 C.3     
  35 O35          -10.6448     2.3782     1.4525 O.3     
  36 H36            0.6248     2.3026     1.5864 H       
  37 H37           -1.6038     3.3290     1.4689 H       
  38 H38           -2.8799     0.2366    -1.2219 H       
  39 H39           -3.8294     3.5378     0.0859 H       
  40 H40           -6.0481     1.6675     2.2050 H       
  41 H41           -9.7556     3.7092     2.7298 H       
  42 H42           -9.1667     4.1805     5.0733 H       
  43 H43           -5.4562     2.1359     4.5484 H       
  44 H44           -1.9626    -0.8288    -2.7662 H       
  45 H45           -1.2981    -2.4635    -2.5323 H       
  46 H46           -2.4896    -1.8139    -1.3805 H       
  47 H47            2.7470     1.8014    -0.0658 H       
  48 H48            0.9510    -1.9668     0.7651 H       
  49 H49            5.4440     0.3277     1.1863 H       
  50 H50            5.5398    -0.8385    -0.1550 H       
  51 H51            5.2373     0.8829    -0.4922 H       
  52 H52           -5.8833     0.0239     1.8743 H       
  53 H53           -6.0159    -1.3978     0.8199 H       
  54 H54           -4.7398    -0.2801    -0.9490 H       
  55 H55           -3.8409    -0.1159     0.5740 H       
  56 H56           -6.6985     0.0439    -1.7532 H       
  57 H57           -7.4541    -1.3989    -1.0352 H       
  58 H58           -8.4473     0.0268    -1.4218 H       
  59 H59           -9.5589     3.8613    -0.0006 H       
  60 H60           -8.1159     4.5095     0.8016 H       
  61 H61           -8.2867     3.1113    -1.8826 H       
  62 H62           -7.7761     4.7789    -1.5457 H       
  63 H63           -9.8731     1.3741    -0.1799 H       
  64 H64           -9.4918     0.6645     1.4073 H       
  65 H65          -11.5084     1.9433     1.4655 H       
@<TRIPOS>BOND
   1    1    2 ar
   2    1   18 1
   3    1    6 ar
   4    2    3 ar
   5    2   21 1
   6    3    4 ar
   7    3   36 1
   8    4    5 ar
   9    4   37 1
  10    5    6 ar
  11    5    8 1
  12    6   38 1
  13    7    8 2
  14    7   28 1
  15    7   10 1
  16    8   39 1
  17    9   10 1
  18    9   30 1
  19    9   26 1
  20   10   33 2
  21   11   12 ar
  22   11   13 ar
  23   11   30 1
  24   12   16 ar
  25   12   40 1
  26   13   14 ar
  27   13   41 1
  28   14   15 ar
  29   14   42 1
  30   15   16 ar
  31   15   17 1
  32   16   43 1
  33   18   19 1
  34   19   44 1
  35   19   45 1
  36   19   46 1
  37   20   21 1
  38   20   22 2
  39   20   47 1
  40   21   24 1
  41   22   23 1
  42   22   25 1
  43   23   24 2
  44   24   48 1
  45   25   49 1
  46   25   50 1
  47   25   51 1
  48   26   27 1
  49   26   29 1
  50   27   28 1
  51   27   52 1
  52   27   53 1
  53   28   54 1
  54   28   55 1
  55   29   56 1
  56   29   57 1
  57   29   58 1
  58   30   31 1
  59   30   34 1
  60   31   32 1
  61   31   59 1
  62   31   60 1
  63   32   33 1
  64   32   61 1
  65   32   62 1
  66   34   35 1
  67   34   63 1
  68   34   64 1
  69   35   65 1

#	End of record

