#	Name: ASD01811323
#	Creating user name:	WinNT
#	Creation time:	15. 06. 2019 19:26

#	Modifying user name:	WinNT
#	Modification time:	15. 06. 2019 19:26

#	Program:	/corina/corina34_cracker 3.40 0067  02.08.2006

@<TRIPOS>MOLECULE
ASD01811323
  56   59    0    0    0
SMALL
NO_CHARGES


@<TRIPOS>ATOM
   1 N1             0.2098     1.8204     1.4889 N.am    
   2 C2             0.1836     0.5000     1.7575 C.2     
   3 O3             1.0263    -0.2345     1.2791 O.2     
   4 N4            -0.7766    -0.0063     2.5563 N.am    
   5 O5            -2.7448    -1.8351     3.4567 O.3     
   6 C6            -1.4989    -1.8109     4.1652 C.3     
   7 C7            -0.8050    -1.4417     2.8482 C.3     
   8 C8            -2.0165    -2.1855     2.2728 C.3     
   9 C9             1.2546     2.3596     0.7292 C.ar    
  10 C10            1.0297     3.4750    -0.0689 C.ar    
  11 C11            2.0579     4.0109    -0.8212 C.ar    
  12 C12            3.3149     3.4419    -0.7850 C.ar    
  13 C13            3.5510     2.3219     0.0137 C.ar    
  14 C14            2.5147     1.7845     0.7773 C.ar    
  15 C15           -0.3399     4.1019    -0.1145 C.3     
  16 C16            4.8965     1.7100     0.0540 C.2     
  17 O17            5.0138     0.5085     0.1957 O.2     
  18 N18            5.9929     2.4846    -0.0662 N.am    
  19 C19            7.3304     1.8816    -0.1448 C.3     
  20 C20            8.2206     2.5147     0.9292 C.3     
  21 C21            8.2065     4.0363     0.7660 C.3     
  22 C22            6.7797     4.5578     0.9521 C.3     
  23 C23            5.8728     3.9476    -0.1274 C.3     
  24 C24            9.1080     4.6605     1.7997 C.ar    
  25 C25            8.6139     4.9202     3.0657 C.ar    
  26 C26            9.4442     5.4929     4.0125 C.ar    
  27 C27           10.7634     5.7888     3.6464 C.ar    
  28 C28           11.1845     5.4956     2.3482 C.ar    
  29 N29           10.3568     4.9454     1.4842 N.ar    
  30 C30           11.6646     6.3826     4.5876 C.1     
  31 N31           12.3795     6.8536     5.3343 N.1     
  32 H32           -0.4975     2.3965     1.8187 H       
  33 H33           -1.4488     0.5796     2.9379 H       
  34 H34           -1.4445    -1.0247     4.9182 H       
  35 H35           -1.2021    -2.7857     4.5522 H       
  36 H36            0.1517    -1.9380     2.6854 H       
  37 H37           -1.8549    -3.2581     2.1657 H       
  38 H38           -2.4156    -1.7276     1.3677 H       
  39 H39            1.8770     4.8775    -1.4398 H       
  40 H40            4.1155     3.8631    -1.3749 H       
  41 H41            2.6925     0.9206     1.4006 H       
  42 H42           -0.4157     4.8659     0.6593 H       
  43 H43           -0.4985     4.5577    -1.0918 H       
  44 H44           -1.0961     3.3357     0.0561 H       
  45 H45            7.2578     0.8077     0.0271 H       
  46 H46            7.7579     2.0679    -1.1301 H       
  47 H47            7.8422     2.2513     1.9169 H       
  48 H48            9.2406     2.1465     0.8198 H       
  49 H49            8.5616     4.2979    -0.2308 H       
  50 H50            6.4150     4.2751     1.9395 H       
  51 H51            6.7743     5.6438     0.8588 H       
  52 H52            6.1839     4.2990    -1.1112 H       
  53 H53            4.8382     4.2373     0.0561 H       
  54 H54            7.5905     4.6786     3.3120 H       
  55 H55            9.0844     5.7066     5.0081 H       
  56 H56           12.1987     5.7181     2.0512 H       
@<TRIPOS>BOND
   1    1    2 am
   2    1    9 1
   3    1   32 1
   4    2    3 2
   5    2    4 am
   6    4    7 1
   7    4   33 1
   8    5    6 1
   9    5    8 1
  10    6    7 1
  11    6   34 1
  12    6   35 1
  13    7    8 1
  14    7   36 1
  15    8   37 1
  16    8   38 1
  17    9   10 ar
  18    9   14 ar
  19   10   11 ar
  20   10   15 1
  21   11   12 ar
  22   11   39 1
  23   12   13 ar
  24   12   40 1
  25   13   14 ar
  26   13   16 1
  27   14   41 1
  28   15   42 1
  29   15   43 1
  30   15   44 1
  31   16   17 2
  32   16   18 am
  33   18   19 1
  34   18   23 1
  35   19   20 1
  36   19   45 1
  37   19   46 1
  38   20   21 1
  39   20   47 1
  40   20   48 1
  41   21   22 1
  42   21   24 1
  43   21   49 1
  44   22   23 1
  45   22   50 1
  46   22   51 1
  47   23   52 1
  48   23   53 1
  49   24   25 ar
  50   24   29 ar
  51   25   26 ar
  52   25   54 1
  53   26   27 ar
  54   26   55 1
  55   27   28 ar
  56   27   30 1
  57   28   29 ar
  58   28   56 1
  59   30   31 3

#	End of record

