#	Name: ASD03090712
#	Creating user name:	WinNT
#	Creation time:	15. 06. 2019 20:29

#	Modifying user name:	WinNT
#	Modification time:	15. 06. 2019 20:29

#	Program:	/corina/corina34_cracker 3.40 0067  02.08.2006

@<TRIPOS>MOLECULE
ASD03090712
  35   36    0    0    0
SMALL
NO_CHARGES


@<TRIPOS>ATOM
   1 N1            -0.0162     1.3436     0.0094 N.am    
   2 C2             0.0189     0.1476     0.6298 C.2     
   3 O3             1.0722    -0.2858     1.0555 O.2     
   4 N4            -1.1134    -0.5681     0.7782 N.am    
   5 O5            -1.7393    -3.6099     2.2169 O.3     
   6 N6            -2.0865    -2.6079     1.6361 N.2     
   7 C7            -1.0771    -1.8058     1.4201 C.2     
   8 C8             0.0642    -2.4479     1.9700 C.2     
   9 C9            -0.4225    -3.6065     2.4698 C.2     
  10 C10            0.3621    -4.6838     3.1733 C.3     
  11 F11            0.3807    -4.4249     4.5480 F       
  12 C12            1.1455     2.1271    -0.0705 C.ar    
  13 C13            1.0459     3.5105    -0.1989 C.ar    
  14 C14            2.1938     4.2813    -0.2770 C.ar    
  15 C15            3.4402     3.6749    -0.2274 C.ar    
  16 C16            3.5381     2.2968    -0.0995 C.ar    
  17 C17            2.3935     1.5253    -0.0159 C.ar    
  18 O18            4.5674     4.4317    -0.3046 O.3     
  19 C19            4.3928     5.8440    -0.4357 C.3     
  20 O20           -0.1770     4.1034    -0.2479 O.3     
  21 C21           -0.2034     5.5260    -0.3803 C.3     
  22 Br22           5.2390     1.4732    -0.0327 Br      
  23 H23           -0.8434     1.6610    -0.3853 H       
  24 H24           -1.9537    -0.2224     0.4385 H       
  25 H25            1.0843    -2.0935     1.9850 H       
  26 H26           -0.1060    -5.6514     2.9921 H       
  27 H27            1.3832    -4.6972     2.7923 H       
  28 H28            2.1184     5.3540    -0.3770 H       
  29 H29            2.4716     0.4531     0.0877 H       
  30 H30            3.8335     6.0579    -1.3464 H       
  31 H31            3.8435     6.2237     0.4258 H       
  32 H32            5.3684     6.3275    -0.4865 H       
  33 H33            0.3082     5.9795     0.4687 H       
  34 H34            0.2991     5.8144    -1.3036 H       
  35 H35           -1.2375     5.8693    -0.4070 H       
@<TRIPOS>BOND
   1    1    2 am
   2    1   12 1
   3    1   23 1
   4    2    3 2
   5    2    4 am
   6    4    7 1
   7    4   24 1
   8    5    6 1
   9    5    9 1
  10    6    7 2
  11    7    8 1
  12    8    9 2
  13    8   25 1
  14    9   10 1
  15   10   11 1
  16   10   26 1
  17   10   27 1
  18   12   13 ar
  19   12   17 ar
  20   13   14 ar
  21   13   20 1
  22   14   15 ar
  23   14   28 1
  24   15   16 ar
  25   15   18 1
  26   16   17 ar
  27   16   22 1
  28   17   29 1
  29   18   19 1
  30   19   30 1
  31   19   31 1
  32   19   32 1
  33   20   21 1
  34   21   33 1
  35   21   34 1
  36   21   35 1

#	End of record

