#	Name: ASD03092203
#	Creating user name:	WinNT
#	Creation time:	15. 06. 2019 20:32

#	Modifying user name:	WinNT
#	Modification time:	15. 06. 2019 20:32

#	Program:	/corina/corina34_cracker 3.40 0067  02.08.2006

@<TRIPOS>MOLECULE
ASD03092203
  55   57    0    0    0
SMALL
NO_CHARGES


@<TRIPOS>ATOM
   1 C1             0.0072     0.9400     0.9623 C.ar    
   2 C2             0.0033    -0.4185     0.7207 C.ar    
   3 C3            -1.2221    -1.0799     0.5854 C.ar    
   4 C4            -2.3953    -0.3267     0.7023 C.ar    
   5 C5            -2.2990     1.0283     0.9446 C.ar    
   6 N6            -1.1228     1.6120     1.0705 N.ar    
   7 C7            -1.2758    -2.5359     0.3253 C.2     
   8 C8            -3.5548     1.8516     1.0722 C.3     
   9 C9             1.3201     1.6647     1.1107 C.3     
  10 N10           -2.3375    -3.3438     0.5429 N.pl3   
  11 N11           -1.9394    -4.6335     0.1556 N.2     
  12 C12           -0.6976    -4.5412    -0.2626 C.2     
  13 N13           -0.2990    -3.2724    -0.1647 N.2     
  14 C14           -3.6440    -2.9517     1.0772 C.3     
  15 C15           -4.5858    -2.6090    -0.0789 C.3     
  16 O16           -4.8320    -3.7824    -0.8565 O.3     
  17 C17           -5.9084    -2.0809     0.4803 C.3     
  18 C18           -6.8026    -1.6217    -0.6732 C.3     
  19 N19            0.0783    -5.6002    -0.7382 N.pl3   
  20 C20            1.3499    -5.3542    -1.2627 C.ar    
  21 C21            2.3254    -6.3403    -1.2119 C.ar    
  22 C22            3.5856    -6.0923    -1.7332 C.ar    
  23 C23            3.8691    -4.8597    -2.3043 C.ar    
  24 C24            2.8967    -3.8788    -2.3541 C.ar    
  25 C25            1.6380    -4.1237    -1.8410 C.ar    
  26 C26            3.2086    -2.5413    -2.9746 C.3     
  27 F27            4.5333    -2.5337    -3.4246 F       
  28 F28            2.3481    -2.3161    -4.0544 F       
  29 F29            3.0342    -1.5327    -2.0210 F       
  30 O30            4.5430    -7.0556    -1.6847 O.3     
  31 C31            4.1814    -8.2999    -1.0823 C.3     
  32 H32            0.9322    -0.9631     0.6371 H       
  33 H33           -3.3617    -0.7987     0.6040 H       
  34 H34           -3.8726     1.8702     2.1147 H       
  35 H35           -3.3582     2.8689     0.7340 H       
  36 H36           -4.3418     1.4110     0.4602 H       
  37 H37            1.6517     2.0193     0.1348 H       
  38 H38            1.1924     2.5141     1.7818 H       
  39 H39            2.0658     0.9849     1.5229 H       
  40 H40           -4.0625    -3.7759     1.6547 H       
  41 H41           -3.5265    -2.0799     1.7208 H       
  42 H42           -4.1267    -1.8462    -0.7076 H       
  43 H43           -5.2406    -4.5046    -0.3600 H       
  44 H44           -6.4102    -2.8731     1.0358 H       
  45 H45           -5.7119    -1.2395     1.1447 H       
  46 H46           -6.9992    -2.4631    -1.3377 H       
  47 H47           -7.7449    -1.2455    -0.2749 H       
  48 H48           -6.3009    -0.8295    -1.2288 H       
  49 H49           -0.2654    -6.5067    -0.7046 H       
  50 H50            2.1031    -7.2989    -0.7668 H       
  51 H51            4.8512    -4.6666    -2.7101 H       
  52 H52            0.8798    -3.3556    -1.8814 H       
  53 H53            3.8844    -8.1298    -0.0474 H       
  54 H54            3.3496    -8.7412    -1.6312 H       
  55 H55            5.0346    -8.9778    -1.1087 H       
@<TRIPOS>BOND
   1    1    2 ar
   2    1    9 1
   3    1    6 ar
   4    2    3 ar
   5    2   32 1
   6    3    4 ar
   7    3    7 1
   8    4    5 ar
   9    4   33 1
  10    5    6 ar
  11    5    8 1
  12    7   10 1
  13    7   13 2
  14    8   34 1
  15    8   35 1
  16    8   36 1
  17    9   37 1
  18    9   38 1
  19    9   39 1
  20   10   11 1
  21   10   14 1
  22   11   12 2
  23   12   13 1
  24   12   19 1
  25   14   15 1
  26   14   40 1
  27   14   41 1
  28   15   16 1
  29   15   17 1
  30   15   42 1
  31   16   43 1
  32   17   18 1
  33   17   44 1
  34   17   45 1
  35   18   46 1
  36   18   47 1
  37   18   48 1
  38   19   20 1
  39   19   49 1
  40   20   21 ar
  41   20   25 ar
  42   21   22 ar
  43   21   50 1
  44   22   23 ar
  45   22   30 1
  46   23   24 ar
  47   23   51 1
  48   24   25 ar
  49   24   26 1
  50   25   52 1
  51   26   27 1
  52   26   28 1
  53   26   29 1
  54   30   31 1
  55   31   53 1
  56   31   54 1
  57   31   55 1

#	End of record

