#	Name: ASD01911421
#	Creating user name:	WinNT
#	Creation time:	15. 06. 2019 19:57

#	Modifying user name:	WinNT
#	Modification time:	15. 06. 2019 19:57

#	Program:	/corina/corina34_cracker 3.40 0067  02.08.2006

@<TRIPOS>MOLECULE
ASD01911421
  34   36    0    0    0
SMALL
NO_CHARGES


@<TRIPOS>ATOM
   1 N1            -0.0070     1.4095    -0.0033 N.2     
   2 N2            -0.0070     0.0095    -0.0452 N.pl3   
   3 C3             1.2422     1.8244     0.0383 C.2     
   4 C4             2.0820     0.6978     0.0241 C.2     
   5 C5             1.2901    -0.4115    -0.0276 C.2     
   6 C6             1.7540    -1.8165    -0.0589 C.ar    
   7 C7             1.6866     3.2389     0.0906 C.ar    
   8 N8             2.9827     3.5197     0.1288 N.ar    
   9 C9            -1.1915    -0.8509    -0.0986 C.3     
  10 C10           -1.6285    -1.0157    -1.5315 C.2     
  11 O11           -2.7008    -1.7683    -1.8238 O.3     
  12 O12           -1.0136    -0.4703    -2.4171 O.2     
  13 C13            3.4196     4.7616     0.1754 C.ar    
  14 C14            2.5338     5.8264     0.1867 C.ar    
  15 C15            1.1677     5.5752     0.1477 C.ar    
  16 C16            0.7394     4.2603     0.0934 C.ar    
  17 F17            2.9932     7.0959     0.2355 F       
  18 C18            0.9286    -2.8152    -0.5760 C.ar    
  19 C19            3.0206    -2.1468     0.4233 C.ar    
  20 C20            3.4473    -3.4585     0.3915 C.ar    
  21 C21            2.6220    -4.4452    -0.1177 C.ar    
  22 C22            1.3668    -4.1233    -0.6023 C.ar    
  23 H23            3.1617     0.7084     0.0493 H       
  24 H24           -0.9508    -1.8271     0.3223 H       
  25 H25           -1.9975    -0.3957     0.4770 H       
  26 H26           -2.9426    -1.8443    -2.7569 H       
  27 H27            4.4823     4.9520     0.2056 H       
  28 H28            0.4563     6.3878     0.1558 H       
  29 H29           -0.3150     4.0290     0.0617 H       
  30 H30           -0.0514    -2.5651    -0.9545 H       
  31 H31            3.6660    -1.3773     0.8205 H       
  32 H32            4.4277    -3.7155     0.7645 H       
  33 H33            2.9608    -5.4704    -0.1412 H       
  34 H34            0.7270    -4.8980    -0.9983 H       
@<TRIPOS>BOND
   1    1    2 1
   2    1    3 2
   3    2    9 1
   4    2    5 1
   5    3    4 1
   6    3    7 1
   7    4    5 2
   8    4   23 1
   9    5    6 1
  10    6   18 ar
  11    6   19 ar
  12    7    8 ar
  13    7   16 ar
  14    8   13 ar
  15    9   10 1
  16    9   24 1
  17    9   25 1
  18   10   11 1
  19   10   12 2
  20   11   26 1
  21   13   14 ar
  22   13   27 1
  23   14   15 ar
  24   14   17 1
  25   15   16 ar
  26   15   28 1
  27   16   29 1
  28   18   22 ar
  29   18   30 1
  30   19   20 ar
  31   19   31 1
  32   20   21 ar
  33   20   32 1
  34   21   22 ar
  35   21   33 1
  36   22   34 1

#	End of record

