#	Name: ASD01180228
#	Creating user name:	WinNT
#	Creation time:	15. 06. 2019 19:07

#	Modifying user name:	WinNT
#	Modification time:	15. 06. 2019 19:07

#	Program:	/corina/corina34_cracker 3.40 0067  02.08.2006

@<TRIPOS>MOLECULE
ASD01180228
  63   65    0    0    0
SMALL
NO_CHARGES


@<TRIPOS>ATOM
   1 C1            -1.5628     1.5058    -0.1649 C.2     
   2 C2            -1.3156     0.0192    -0.1617 C.3     
   3 C3             0.1789    -0.2497    -0.3485 C.3     
   4 O4            -0.6384     2.2716    -0.3025 O.2     
   5 O5            -2.8106     1.9791    -0.0205 O.3     
   6 C6             1.6713    -2.1702    -0.4959 C.2     
   7 C7             1.9134    -3.6263    -0.4927 C.ar    
   8 C8             3.2124    -4.1325    -0.6486 C.ar    
   9 C9             3.3881    -5.5007    -0.6390 C.ar    
  10 C10            2.2806    -6.3277    -0.4764 C.ar    
  11 N11            1.0666    -5.8193    -0.3316 N.ar    
  12 C12            0.8544    -4.5198    -0.3289 C.ar    
  13 O13            2.6015    -1.3996    -0.6343 O.2     
  14 N14            0.4191    -1.6949    -0.3453 N.am    
  15 O15            2.4469    -7.6724    -0.4666 O.3     
  16 C16            1.2917    -8.4670    -0.1908 C.3     
  17 C17            0.5852    -8.8126    -1.5031 C.3     
  18 C18           -0.7281    -9.5366    -1.2000 C.3     
  19 C19           -1.6852    -8.5796    -0.4866 C.3     
  20 C20            2.4785   -12.0702     1.7811 C.ar    
  21 C21            1.2723   -11.4564     2.1125 C.ar    
  22 C22            0.8940   -10.2935     1.4726 C.ar    
  23 C23            1.7099    -9.7371     0.5041 C.ar    
  24 C24            2.9082   -10.3425     0.1708 C.ar    
  25 C25            3.2963   -11.5056     0.8044 C.ar    
  26 C26            2.8934   -13.3173     2.4700 C.ar    
  27 C27            4.0995   -13.9311     2.1385 C.ar    
  28 C28            4.4805   -15.0909     2.7825 C.ar    
  29 C29            3.6672   -15.6442     3.7549 C.ar    
  30 C30            2.4686   -15.0393     4.0876 C.ar    
  31 C31            2.0809   -13.8756     3.4547 C.ar    
  32 C32            4.0883   -16.9109     4.4542 C.3     
  33 F33            4.8353   -16.5891     5.5925 F       
  34 F34            2.9523   -17.6352     4.8313 F       
  35 F35            4.8683   -17.6846     3.5880 F       
  36 C36           -1.3628   -10.0110    -2.5089 C.3     
  37 H37           -1.6446    -0.4017     0.7884 H       
  38 H38           -1.8727    -0.4434    -0.9764 H       
  39 H39            0.5079     0.1712    -1.2985 H       
  40 H40            0.7359     0.2130     0.4663 H       
  41 H41           -2.9194     2.9399    -0.0289 H       
  42 H42            4.0541    -3.4674    -0.7734 H       
  43 H43            4.3741    -5.9255    -0.7567 H       
  44 H44           -0.1496    -4.1421    -0.2036 H       
  45 H45           -0.3230    -2.3097    -0.2349 H       
  46 H46            0.6114    -7.9083     0.4520 H       
  47 H47            0.3759    -7.8964    -2.0553 H       
  48 H48            1.2267    -9.4591    -2.1019 H       
  49 H49           -0.5297   -10.3963    -0.5599 H       
  50 H50           -1.8438    -7.6962    -1.1051 H       
  51 H51           -2.6386    -9.0796    -0.3158 H       
  52 H52           -1.2550    -8.2813     0.4695 H       
  53 H53            0.6344   -11.8900     2.8685 H       
  54 H54           -0.0407    -9.8169     1.7287 H       
  55 H55            3.5413    -9.9041    -0.5863 H       
  56 H56            4.2324   -11.9771     0.5439 H       
  57 H57            4.7350   -13.5003     1.3789 H       
  58 H58            5.4152   -15.5675     2.5263 H       
  59 H59            1.8372   -15.4757     4.8474 H       
  60 H60            1.1473   -13.4013     3.7189 H       
  61 H61           -0.6810   -10.6928    -3.0171 H       
  62 H62           -2.2984   -10.5268    -2.2929 H       
  63 H63           -1.5612    -9.1513    -3.1489 H       
@<TRIPOS>BOND
   1    1    2 1
   2    1    4 2
   3    1    5 1
   4    2    3 1
   5    2   37 1
   6    2   38 1
   7    3   14 1
   8    3   39 1
   9    3   40 1
  10    5   41 1
  11    6    7 1
  12    6   13 2
  13    6   14 am
  14    7    8 ar
  15    7   12 ar
  16    8    9 ar
  17    8   42 1
  18    9   10 ar
  19    9   43 1
  20   10   11 ar
  21   10   15 1
  22   11   12 ar
  23   12   44 1
  24   14   45 1
  25   15   16 1
  26   16   17 1
  27   16   23 1
  28   16   46 1
  29   17   18 1
  30   17   47 1
  31   17   48 1
  32   18   19 1
  33   18   36 1
  34   18   49 1
  35   19   50 1
  36   19   51 1
  37   19   52 1
  38   20   21 ar
  39   20   25 ar
  40   20   26 1
  41   21   22 ar
  42   21   53 1
  43   22   23 ar
  44   22   54 1
  45   23   24 ar
  46   24   25 ar
  47   24   55 1
  48   25   56 1
  49   26   27 ar
  50   26   31 ar
  51   27   28 ar
  52   27   57 1
  53   28   29 ar
  54   28   58 1
  55   29   30 ar
  56   29   32 1
  57   30   31 ar
  58   30   59 1
  59   31   60 1
  60   32   33 1
  61   32   34 1
  62   32   35 1
  63   36   61 1
  64   36   62 1
  65   36   63 1

#	End of record

