#	Name: ASD04390001
#	Creating user name:	WinNT
#	Creation time:	15. 06. 2019 20:49

#	Modifying user name:	WinNT
#	Modification time:	15. 06. 2019 20:49

#	Program:	/corina/corina34_cracker 3.40 0067  02.08.2006

@<TRIPOS>MOLECULE
ASD04390001
  24   25    0    0    0
SMALL
NO_CHARGES


@<TRIPOS>ATOM
   1 C1            -0.0184     1.5028     0.0103 C.3     
   2 C2             0.0021    -0.0041     0.0020 C.ar    
   3 N3             0.0217    -0.6438     1.1571 N.ar    
   4 C4             0.0398    -1.9653     1.2087 C.ar    
   5 C5             0.0376    -2.6783     0.0052 C.ar    
   6 C6             0.0163    -1.9579    -1.2068 C.ar    
   7 N7            -0.0058    -0.6296    -1.1566 N.ar    
   8 N8             0.0136    -2.6244    -2.4054 N.am    
   9 C9            -0.0086    -1.8593    -3.6545 C.3     
  10 C10            0.0315    -3.9687    -2.4538 C.2     
  11 O11            0.0289    -4.5300    -3.5352 O.2     
  12 C12            0.0544    -4.7672    -1.2279 C.2     
  13 C13            0.0572    -4.1393    -0.0194 C.2     
  14 N14            0.0732    -6.1634    -1.2966 N.pl3   
  15 H15            1.0042     1.8801     0.0026 H       
  16 H16           -0.5455     1.8639    -0.8728 H       
  17 H17           -0.5286     1.8543     0.9071 H       
  18 H18            0.0561    -2.4814     2.1572 H       
  19 H19            1.0134    -1.6559    -3.9742 H       
  20 H20           -0.5223    -2.4352    -4.4243 H       
  21 H21           -0.5335    -0.9175    -3.4944 H       
  22 H22            0.0739    -4.7075     0.8989 H       
  23 H23            0.0711    -6.6066    -2.1594 H       
  24 H24            0.0884    -6.6890    -0.4815 H       
@<TRIPOS>BOND
   1    1    2 1
   2    1   15 1
   3    1   16 1
   4    1   17 1
   5    2    3 ar
   6    2    7 ar
   7    3    4 ar
   8    4    5 ar
   9    4   18 1
  10    5    6 ar
  11    5   13 1
  12    6    7 ar
  13    6    8 1
  14    8    9 1
  15    8   10 am
  16    9   19 1
  17    9   20 1
  18    9   21 1
  19   10   11 2
  20   10   12 1
  21   12   13 2
  22   12   14 1
  23   13   22 1
  24   14   23 1
  25   14   24 1

#	End of record

