#	Name: ASD05740141
#	Creating user name:	WinNT
#	Creation time:	15. 06. 2019 21:02

#	Modifying user name:	WinNT
#	Modification time:	15. 06. 2019 21:02

#	Program:	/corina/corina34_cracker 3.40 0067  02.08.2006

@<TRIPOS>MOLECULE
ASD05740141
  58   59    0    0    0
SMALL
NO_CHARGES


@<TRIPOS>ATOM
   1 N1             0.0096     1.6347     0.0748 N.3     
   2 C2            -2.3892    -2.2167     1.2077 C.3     
   3 C3            -4.3218    -0.5675     1.3039 C.2     
   4 C4            -4.8946     0.6241     0.8967 C.2     
   5 C5            -3.0441    -0.9266     0.7863 C.2     
   6 C6            -2.4204    -0.0965    -0.0899 C.2     
   7 C7            -3.0436     1.1023    -0.4724 C.2     
   8 O8            -4.2462     1.4291     0.0212 O.3     
   9 C9            -1.0683    -0.4597    -0.6474 C.3     
  10 C10            0.0259     0.1632     0.2219 C.3     
  11 C11            1.4095    -0.3225    -0.2483 C.3     
  12 O12           -2.4875     1.8504    -1.2586 O.2     
  13 C13            1.4291     2.0652     0.1520 C.3     
  14 C14            2.1776     0.9616    -0.6369 C.3     
  15 N15            1.6091     3.3707    -0.4879 N.am    
  16 S16            1.5981     4.7503     0.4280 S.o2    
  17 O17            1.7709     5.7987    -0.5155 O.2     
  18 O18            0.4099     4.6485     1.2007 O.2     
  19 S19           -6.4595     0.8308     1.6760 S.3     
  20 C20           -6.3095    -0.6909     2.5333 C.2     
  21 C21           -5.1642    -1.2886     2.2470 C.2     
  22 O22           -7.2442    -1.1886     3.3842 O.3     
  23 C23            3.0620     4.6009     1.4888 C.3     
  24 C24            3.1623     5.8121     2.3800 C.2     
  25 O25            2.3283     6.6896     2.3067 O.2     
  26 N26            4.1787     5.9201     3.2584 N.am    
  27 C27            4.2761     7.0975     4.1248 C.3     
  28 C28           -8.4236    -0.4063     3.5821 C.3     
  29 H29           -0.4030     1.9056    -0.8053 H       
  30 H30           -2.9951    -2.6979     1.9755 H       
  31 H31           -2.3021    -2.8784     0.3459 H       
  32 H32           -1.3967    -2.0071     1.6065 H       
  33 H33           -0.9561    -1.5439    -0.6512 H       
  34 H34           -0.9819    -0.0820    -1.6662 H       
  35 H35           -0.1307    -0.1074     1.2661 H       
  36 H36            1.9238    -0.8406     0.5611 H       
  37 H37            1.3066    -0.9781    -1.1131 H       
  38 H38            1.7687     2.0955     1.1873 H       
  39 H39            3.2186     0.8994    -0.3197 H       
  40 H40            2.1103     1.1415    -1.7099 H       
  41 H41            1.7346     3.4270    -1.4481 H       
  42 H42           -4.8804    -2.2395     2.6733 H       
  43 H43            2.9760     3.7043     2.1026 H       
  44 H44            3.9552     4.5318     0.8679 H       
  45 H45            4.8457     5.2183     3.3171 H       
  46 H46            5.1557     7.0077     4.7622 H       
  47 H47            4.3622     7.9941     3.5110 H       
  48 H48            3.3830     7.1666     4.7457 H       
  49 H49           -8.9359    -0.2740     2.6291 H       
  50 H50           -9.0849    -0.9167     4.2823 H       
  51 H51           -8.1496     0.5684     3.9857 H       
  52 C52           10.6829    15.6634    11.6305 C.3     
  53 N53           10.7028    14.1986    11.6224 N.2     
  54 C54           11.2435    13.5860    10.6764 C.1     
  55 O55           11.7661    12.9941     9.7622 O.2     
  56 H56           11.7055    16.0407    11.6228 H       
  57 H57           10.1557    16.0245    10.7474 H       
  58 H58           10.1727    16.0149    12.5273 H       
@<TRIPOS>BOND
   1    1   10 1
   2    1   13 1
   3    1   29 1
   4    2    5 1
   5    2   30 1
   6    2   31 1
   7    2   32 1
   8    3    4 2
   9    3    5 1
  10    3   21 1
  11    4   19 1
  12    4    8 1
  13    5    6 2
  14    6    7 1
  15    6    9 1
  16    7    8 1
  17    7   12 2
  18    9   10 1
  19    9   33 1
  20    9   34 1
  21   10   11 1
  22   10   35 1
  23   11   14 1
  24   11   36 1
  25   11   37 1
  26   13   14 1
  27   13   15 1
  28   13   38 1
  29   14   39 1
  30   14   40 1
  31   15   16 am
  32   15   41 1
  33   16   17 2
  34   16   18 2
  35   16   23 1
  36   19   20 1
  37   20   21 2
  38   20   22 1
  39   21   42 1
  40   22   28 1
  41   23   24 1
  42   23   43 1
  43   23   44 1
  44   24   25 2
  45   24   26 am
  46   26   27 1
  47   26   45 1
  48   27   46 1
  49   27   47 1
  50   27   48 1
  51   28   49 1
  52   28   50 1
  53   28   51 1
  54   52   53 1
  55   52   56 1
  56   52   57 1
  57   52   58 1
  58   53   54 2
  59   54   55 2

#	End of record

