#	Name: ASD01885033
#	Creating user name:	WinNT
#	Creation time:	15. 06. 2019 19:49

#	Modifying user name:	WinNT
#	Modification time:	15. 06. 2019 19:49

#	Program:	/corina/corina34_cracker 3.40 0067  02.08.2006

@<TRIPOS>MOLECULE
ASD01885033
  55   60    0    0    0
SMALL
NO_CHARGES


@<TRIPOS>ATOM
   1 C1            -0.0170     1.4050     0.0098 C.2     
   2 C2             0.0021    -0.0041     0.0020 C.2     
   3 C3            -1.1769    -0.6844     0.0096 C.2     
   4 C4            -2.3905     0.0241     0.0250 C.2     
   5 C5            -2.3929     1.3736     0.0318 C.2     
   6 N6            -1.2190     2.0686     0.0314 N.pl3   
   7 C7            -0.9124     3.3942     0.0338 C.2     
   8 N8             0.3916     3.4965     0.0147 N.2     
   9 N9             0.9307     2.3281     0.0057 N.2     
  10 C10           -1.8956     4.5361     0.0542 C.3     
  11 Cl11           1.5112    -0.8620    -0.0176 Cl      
  12 C12           -2.2072     4.9150     1.5034 C.3     
  13 N13           -1.8212     6.2588     1.9543 N.3     
  14 C14           -3.2528     6.0061     1.7425 C.3     
  15 C15           -1.1808    -2.1914     0.0011 C.3     
  16 N16           -1.2893    -2.6886     1.3791 N.3     
  17 C17           -1.5339    -4.1364     1.3984 C.3     
  18 C18           -1.7856    -4.5934     2.8371 C.3     
  19 C19           -0.5656    -4.2515     3.6969 C.3     
  20 C20           -0.3034    -2.7449     3.6208 C.3     
  21 C21           -0.0947    -2.3415     2.1594 C.3     
  22 N22           -0.8238    -4.6340     5.0873 N.pl3   
  23 C23           -0.0803    -5.5404     5.8095 C.ar    
  24 C24           -0.6553    -5.6212     7.0912 C.ar    
  25 C25           -1.7938    -4.6994     7.0828 C.2     
  26 C26           -1.8362    -4.1392     5.8636 C.2     
  27 C27           -0.1035    -6.4729     8.0496 C.ar    
  28 C28            0.9940    -7.2250     7.7375 C.ar    
  29 C29            1.5651    -7.1486     6.4749 C.ar    
  30 C30            1.0364    -6.3149     5.5137 C.ar    
  31 H31           -3.3266    -0.5144     0.0311 H       
  32 H32           -3.3315     1.9076     0.0429 H       
  33 H33           -1.4659     5.3948    -0.4616 H       
  34 H34           -2.8146     4.2333    -0.4478 H       
  35 H35           -2.1462     4.1020     2.2269 H       
  36 H36           -1.5958     6.2593     2.9378 H       
  37 H37           -3.7218     6.4572     0.8681 H       
  38 H38           -3.8860     5.9147     2.6250 H       
  39 H39           -2.0292    -2.5492    -0.5822 H       
  40 H40           -0.2546    -2.5546    -0.4443 H       
  41 H41           -2.4065    -4.3655     0.7867 H       
  42 H42           -0.6637    -4.6571     0.9989 H       
  43 H43           -2.6639    -4.0833     3.2326 H       
  44 H44           -1.9517    -5.6706     2.8530 H       
  45 H45            0.3050    -4.7919     3.3252 H       
  46 H46           -1.1584    -2.2057     4.0287 H       
  47 H47            0.5895    -2.5013     4.1967 H       
  48 H48            0.7688    -2.8706     1.7564 H       
  49 H49            0.0780    -1.2668     2.1004 H       
  50 H50           -2.4685    -4.5044     7.9032 H       
  51 H51           -2.5634    -3.4083     5.5421 H       
  52 H52           -0.5422    -6.5370     9.0345 H       
  53 H53            1.4205    -7.8839     8.4794 H       
  54 H54            2.4325    -7.7490     6.2433 H       
  55 H55            1.4877    -6.2629     4.5339 H       
@<TRIPOS>BOND
   1    1    2 1
   2    1    9 2
   3    1    6 1
   4    2    3 2
   5    2   11 1
   6    3    4 1
   7    3   15 1
   8    4    5 2
   9    4   31 1
  10    5    6 1
  11    5   32 1
  12    6    7 1
  13    7    8 2
  14    7   10 1
  15    8    9 1
  16   10   12 1
  17   10   33 1
  18   10   34 1
  19   12   13 1
  20   12   14 1
  21   12   35 1
  22   13   14 1
  23   13   36 1
  24   14   37 1
  25   14   38 1
  26   15   16 1
  27   15   39 1
  28   15   40 1
  29   16   17 1
  30   16   21 1
  31   17   18 1
  32   17   41 1
  33   17   42 1
  34   18   19 1
  35   18   43 1
  36   18   44 1
  37   19   20 1
  38   19   22 1
  39   19   45 1
  40   20   21 1
  41   20   46 1
  42   20   47 1
  43   21   48 1
  44   21   49 1
  45   22   23 1
  46   22   26 1
  47   23   30 ar
  48   23   24 ar
  49   24   25 1
  50   24   27 ar
  51   25   26 2
  52   25   50 1
  53   26   51 1
  54   27   28 ar
  55   27   52 1
  56   28   29 ar
  57   28   53 1
  58   29   30 ar
  59   29   54 1
  60   30   55 1

#	End of record

