#	Name: ASD05430116
#	Creating user name:	WinNT
#	Creation time:	15. 06. 2019 20:59

#	Modifying user name:	WinNT
#	Modification time:	15. 06. 2019 20:59

#	Program:	/corina/corina34_cracker 3.40 0067  02.08.2006

@<TRIPOS>MOLECULE
ASD05430116
  73   78    0    0    0
SMALL
NO_CHARGES


@<TRIPOS>ATOM
   1 F1            13.9725    -2.5406   -10.6909 F       
   2 C2             5.2634    -3.6455    -3.1835 C.ar    
   3 C3             4.4198    -2.6712    -2.6681 C.ar    
   4 C4             3.7742    -1.7785    -3.5199 C.ar    
   5 C5             3.9689    -1.8535    -4.8802 C.ar    
   6 C6             4.8201    -2.8312    -5.4064 C.ar    
   7 C7             5.4622    -3.7272    -4.5482 C.ar    
   8 C8             7.1344    -4.2026    -6.4786 C.3     
   9 C9             6.2076    -3.3766    -7.3410 C.2     
  10 C10            5.0355    -2.9178    -6.8598 C.2     
  11 C11            8.5551    -4.1650    -7.0449 C.3     
  12 C12            8.8889    -2.8659    -7.7849 C.3     
  13 N13            7.9624    -2.7072    -8.9070 N.pl3   
  14 C14            6.6253    -3.0890    -8.7217 C.2     
  15 C15            9.8819    -2.2486   -10.3174 C.ar    
  16 C16           10.4540    -3.4281   -10.7554 C.ar    
  17 C17           11.8273    -3.5271   -10.8812 C.ar    
  18 C18           12.6305    -2.4446   -10.5686 C.ar    
  19 C19           10.6817    -1.1652   -10.0042 C.ar    
  20 C20            4.6369    -3.6670    -0.4156 C.3     
  21 C21            8.3844    -2.1414   -10.1870 C.3     
  22 C22            7.7127    -2.9256   -11.3201 C.3     
  23 N23            6.2808    -3.0570   -11.0406 N.pl3   
  24 N24            5.8193    -3.2112    -9.7280 N.2     
  25 C25            9.6183    -4.5465    -6.0100 C.3     
  26 S26            9.2861    -6.3028    -6.3196 S.o     
  27 C27            8.9066    -5.4160    -7.8559 C.3     
  28 O28           10.5163    -6.9988    -6.4661 O.2     
  29 C29            7.9645    -0.6720   -10.2614 C.3     
  30 O30            8.3781    -0.1212   -11.5134 O.3     
  31 C31            5.9696    -4.6289    -2.2874 C.3     
  32 C32            6.0428    -4.0938    -0.8577 C.3     
  33 N33            4.2073    -2.5653    -1.2872 N.am    
  34 C34            3.6187    -1.4701    -0.7669 C.2     
  35 O35            3.5857    -0.4362    -1.4059 O.2     
  36 N36            3.0668    -1.5210     0.4616 N.am    
  37 C37            2.2990    -0.3805     0.9675 C.3     
  38 C38            3.2346    -2.7169     1.2910 C.3     
  39 C39           12.0564    -1.2610   -10.1291 C.ar    
  40 F40           12.8386    -0.2029    -9.8228 F       
  41 H41            3.1177    -1.0245    -3.1113 H       
  42 H42            3.4664    -1.1606    -5.5389 H       
  43 H43            6.1198    -4.4826    -4.9523 H       
  44 H44            7.1387    -3.8010    -5.4653 H       
  45 H45            6.7823    -5.2339    -6.4547 H       
  46 H46            4.2542    -2.6136    -7.5405 H       
  47 H47            8.7856    -2.0211    -7.1040 H       
  48 H48            9.9115    -2.9118    -8.1596 H       
  49 H49            9.8277    -4.2735   -10.9992 H       
  50 H50           12.2732    -4.4494   -11.2232 H       
  51 H51           10.2334    -0.2440    -9.6623 H       
  52 H52            3.9483    -4.5061    -0.5147 H       
  53 H53            4.6622    -3.3297     0.6206 H       
  54 H54            7.8518    -2.3945   -12.2618 H       
  55 H55            8.1613    -3.9164   -11.3919 H       
  56 H56            5.6452    -3.0366   -11.7731 H       
  57 H57           10.6248    -4.2435    -6.2983 H       
  58 H58            9.3622    -4.2340    -4.9976 H       
  59 H59            8.0537    -5.8328    -8.3916 H       
  60 H60            9.7767    -5.2796    -8.4981 H       
  61 H61            6.8806    -0.5989   -10.1726 H       
  62 H62            8.4338    -0.1184    -9.4481 H       
  63 H63            8.1444     0.8099   -11.6299 H       
  64 H64            5.4255    -5.5734    -2.2906 H       
  65 H65            6.9798    -4.7952    -2.6614 H       
  66 H66            6.7129    -3.2348    -0.8231 H       
  67 H67            6.4129    -4.8750    -0.1938 H       
  68 H68            1.2510    -0.4967     0.6911 H       
  69 H69            2.3858    -0.3370     2.0532 H       
  70 H70            2.6889     0.5407     0.5346 H       
  71 H71            2.3258    -2.8896     1.8676 H       
  72 H72            3.4285    -3.5782     0.6517 H       
  73 H73            4.0743    -2.5726     1.9708 H       
@<TRIPOS>BOND
   1    1   18 1
   2    2    3 ar
   3    2   31 1
   4    2    7 ar
   5    3    4 ar
   6    3   33 1
   7    4    5 ar
   8    4   41 1
   9    5    6 ar
  10    5   42 1
  11    6    7 ar
  12    6   10 1
  13    7   43 1
  14    8    9 1
  15    8   11 1
  16    8   44 1
  17    8   45 1
  18    9   10 2
  19    9   14 1
  20   10   46 1
  21   11   12 1
  22   11   25 1
  23   11   27 1
  24   12   13 1
  25   12   47 1
  26   12   48 1
  27   13   14 1
  28   13   21 1
  29   14   24 2
  30   15   16 ar
  31   15   19 ar
  32   15   21 1
  33   16   17 ar
  34   16   49 1
  35   17   18 ar
  36   17   50 1
  37   18   39 ar
  38   19   39 ar
  39   19   51 1
  40   20   33 1
  41   20   32 1
  42   20   52 1
  43   20   53 1
  44   21   22 1
  45   21   29 1
  46   22   23 1
  47   22   54 1
  48   22   55 1
  49   23   24 1
  50   23   56 1
  51   25   26 1
  52   25   57 1
  53   25   58 1
  54   26   27 1
  55   26   28 2
  56   27   59 1
  57   27   60 1
  58   29   30 1
  59   29   61 1
  60   29   62 1
  61   30   63 1
  62   31   32 1
  63   31   64 1
  64   31   65 1
  65   32   66 1
  66   32   67 1
  67   33   34 am
  68   34   35 2
  69   34   36 am
  70   36   37 1
  71   36   38 1
  72   37   68 1
  73   37   69 1
  74   37   70 1
  75   38   71 1
  76   38   72 1
  77   38   73 1
  78   39   40 1

#	End of record

