#	Name: ASD03170001
#	Creating user name:	WinNT
#	Creation time:	15. 06. 2019 20:33

#	Modifying user name:	WinNT
#	Modification time:	15. 06. 2019 20:33

#	Program:	/corina/corina34_cracker 3.40 0067  02.08.2006

@<TRIPOS>MOLECULE
ASD03170001
  56   59    0    0    0
SMALL
NO_CHARGES


@<TRIPOS>ATOM
   1 C1            -0.8914     1.4763     1.0861 C.3     
   2 O2            -0.9328     0.0265     1.1534 O.3     
   3 C3            -1.1855    -0.6297     0.0100 C.2     
   4 O4            -1.3661    -0.0130    -1.0132 O.2     
   5 C5            -1.2439    -2.1355     0.0025 C.3     
   6 C6            -0.6667    -2.6622    -1.3141 C.3     
   7 C7            -0.6575    -4.1935    -1.3019 C.3     
   8 O8            -0.2538    -4.6878    -2.6061 O.3     
   9 C9             0.3917    -5.8643    -2.6389 C.2     
  10 O10            0.6121    -6.4613    -1.6118 O.2     
  11 C11            0.8414    -6.4405    -3.9568 C.3     
  12 C12           -2.0516    -4.6901    -0.9805 C.2     
  13 O13           -2.5963    -5.5144    -1.6750 O.2     
  14 C14           -2.7375    -4.1198     0.2382 C.3     
  15 C15           -2.6951    -2.5892     0.1385 C.3     
  16 C16           -3.3463    -1.9751     1.3747 C.3     
  17 C17           -4.8033    -2.4447     1.4733 C.3     
  18 C18           -4.8349    -3.9680     1.5568 C.3     
  19 C19           -4.1964    -4.5594     0.2917 C.3     
  20 C20           -4.9323    -4.0362    -0.9434 C.3     
  21 C21           -4.3173    -6.0814     0.3502 C.3     
  22 C22           -5.8022    -6.4595     0.3997 C.3     
  23 O23           -6.4372    -5.8134     1.5372 O.3     
  24 C24           -6.2526    -4.4781     1.6457 C.2     
  25 O25           -7.1836    -3.7251     1.8075 O.2     
  26 C26           -5.9343    -7.9546     0.5346 C.2     
  27 C27           -6.1186    -8.8824    -0.5161 C.2     
  28 C28           -6.1846   -10.1018     0.0479 C.2     
  29 O29           -6.0507    -9.9625     1.3769 O.3     
  30 C30           -5.8936    -8.6630     1.6774 C.2     
  31 H31           -0.6788     1.8801     2.0760 H       
  32 H32           -0.1099     1.7856     0.3921 H       
  33 H33           -1.8543     1.8516     0.7397 H       
  34 H34           -0.6612    -2.5260     0.8368 H       
  35 H35           -1.2788    -2.3103    -2.1445 H       
  36 H36            0.3523    -2.2948    -1.4356 H       
  37 H37            0.0418    -4.5483    -0.5447 H       
  38 H38            1.8483    -6.0891    -4.1823 H       
  39 H39            0.8415    -7.5288    -3.8964 H       
  40 H40            0.1598    -6.1204    -4.7448 H       
  41 H41           -2.2144    -4.4432     1.1381 H       
  42 H42           -3.2546    -2.2713    -0.7413 H       
  43 H43           -2.8024    -2.2892     2.2656 H       
  44 H44           -3.3194    -0.8882     1.2973 H       
  45 H45           -5.2627    -2.0214     2.3665 H       
  46 H46           -5.3521    -2.1169     0.5904 H       
  47 H47           -4.2756    -4.2954     2.4331 H       
  48 H48           -4.4646    -4.4379    -1.8423 H       
  49 H49           -5.9754    -4.3505    -0.9051 H       
  50 H50           -4.8814    -2.9476    -0.9628 H       
  51 H51           -3.8587    -6.5184    -0.5367 H       
  52 H52           -3.8159    -6.4534     1.2437 H       
  53 H53           -6.2896    -6.1352    -0.5198 H       
  54 H54           -6.1928    -8.6556    -1.5694 H       
  55 H55           -6.3222   -11.0347    -0.4788 H       
  56 H56           -5.7634    -8.2553     2.6690 H       
@<TRIPOS>BOND
   1    1    2 1
   2    1   31 1
   3    1   32 1
   4    1   33 1
   5    2    3 1
   6    3    4 2
   7    3    5 1
   8    5    6 1
   9    5   15 1
  10    5   34 1
  11    6    7 1
  12    6   35 1
  13    6   36 1
  14    7    8 1
  15    7   12 1
  16    7   37 1
  17    8    9 1
  18    9   10 2
  19    9   11 1
  20   11   38 1
  21   11   39 1
  22   11   40 1
  23   12   13 2
  24   12   14 1
  25   14   15 1
  26   14   19 1
  27   14   41 1
  28   15   16 1
  29   15   42 1
  30   16   17 1
  31   16   43 1
  32   16   44 1
  33   17   18 1
  34   17   45 1
  35   17   46 1
  36   18   19 1
  37   18   24 1
  38   18   47 1
  39   19   20 1
  40   19   21 1
  41   20   48 1
  42   20   49 1
  43   20   50 1
  44   21   22 1
  45   21   51 1
  46   21   52 1
  47   22   23 1
  48   22   26 1
  49   22   53 1
  50   23   24 1
  51   24   25 2
  52   26   27 1
  53   26   30 2
  54   27   28 2
  55   27   54 1
  56   28   29 1
  57   28   55 1
  58   29   30 1
  59   30   56 1

#	End of record

