#	Name: ASD01142027
#	Creating user name:	WinNT
#	Creation time:	15. 06. 2019 19:01

#	Modifying user name:	WinNT
#	Modification time:	15. 06. 2019 19:01

#	Program:	/corina/corina34_cracker 3.40 0067  02.08.2006

@<TRIPOS>MOLECULE
ASD01142027
  41   43    0    0    0
SMALL
NO_CHARGES


@<TRIPOS>ATOM
   1 C1            -0.0937     1.3806     0.4419 C.ar    
   2 C2            -0.0718    -0.0105     0.4152 C.ar    
   3 N3            -1.1444    -0.7016     0.0030 N.ar    
   4 C4            -2.2492    -0.1203    -0.3894 C.ar    
   5 C5            -2.3651     1.2762    -0.3971 C.ar    
   6 C6            -1.2716     2.0504     0.0197 C.ar    
   7 N7            -1.3433     3.4300     0.0283 N.pl3   
   8 C8             1.1610     1.9564     0.9175 C.2     
   9 C9             2.0850     1.0495     1.2342 C.2     
  10 S10            1.4934    -0.5828     0.9767 S.3     
  11 C11            1.3834     3.4585     1.0369 C.3     
  12 C12            2.8856     3.7287     1.1379 C.3     
  13 C13            3.4820     2.8387     2.2327 C.3     
  14 C14            3.4732     1.3858     1.7514 C.3     
  15 O15            4.8254     3.2455     2.5008 O.3     
  16 C16           -3.4133    -0.9646    -0.8400 C.3     
  17 O17           -3.7777     2.2425    -2.1382 O.3     
  18 C18           -3.6105     1.9199    -0.8401 C.2     
  19 O19           -4.4894     2.1612    -0.0358 O.2     
  20 C20           -5.0322     2.8755    -2.5039 C.3     
  21 C21           -5.0383     3.1539    -3.9493 C.1     
  22 C22           -5.0432     3.3759    -5.1021 C.1     
  23 C23           -5.0494     3.6543    -6.5475 C.3     
  24 H24           -0.6749     3.9474     0.5042 H       
  25 H25           -2.0620     3.8812    -0.4414 H       
  26 H26            0.9808     3.9585     0.1560 H       
  27 H27            0.8842     3.8317     1.9311 H       
  28 H28            3.3617     3.5018     0.1840 H       
  29 H29            3.0514     4.7763     1.3892 H       
  30 H30            2.8845     2.9265     3.1401 H       
  31 H31            3.7239     0.7246     2.5809 H       
  32 H32            4.2017     1.2620     0.9500 H       
  33 H33            5.2652     2.7235     3.1858 H       
  34 H34           -4.0492    -1.1928     0.0154 H       
  35 H35           -3.9904    -0.4191    -1.5866 H       
  36 H36           -3.0422    -1.8928    -1.2746 H       
  37 H37           -5.8600     2.2102    -2.2585 H       
  38 H38           -5.1416     3.8099    -1.9534 H       
  39 H39           -5.9911     4.1296    -6.8220 H       
  40 H40           -4.2216     4.3197    -6.7929 H       
  41 H41           -4.9399     2.7199    -7.0980 H       
@<TRIPOS>BOND
   1    1    2 ar
   2    1    8 1
   3    1    6 ar
   4    2    3 ar
   5    2   10 1
   6    3    4 ar
   7    4    5 ar
   8    4   16 1
   9    5    6 ar
  10    5   18 1
  11    6    7 1
  12    7   24 1
  13    7   25 1
  14    8    9 2
  15    8   11 1
  16    9   10 1
  17    9   14 1
  18   11   12 1
  19   11   26 1
  20   11   27 1
  21   12   13 1
  22   12   28 1
  23   12   29 1
  24   13   14 1
  25   13   15 1
  26   13   30 1
  27   14   31 1
  28   14   32 1
  29   15   33 1
  30   16   34 1
  31   16   35 1
  32   16   36 1
  33   17   18 1
  34   17   20 1
  35   18   19 2
  36   20   21 1
  37   20   37 1
  38   20   38 1
  39   21   22 3
  40   22   23 1
  41   23   39 1
  42   23   40 1
  43   23   41 1

#	End of record

