#	Name: ASD07932219
#	Creating user name:	WinNT
#	Creation time:	15. 06. 2019 21:14

#	Modifying user name:	WinNT
#	Modification time:	15. 06. 2019 21:14

#	Program:	/corina/corina34_cracker 3.40 0067  02.08.2006

@<TRIPOS>MOLECULE
ASD07932219
  67   71    0    0    0
SMALL
NO_CHARGES


@<TRIPOS>ATOM
   1 N1             0.0015     1.3447     0.0160 N.ar    
   2 C2             0.0104     0.0273     0.0758 C.ar    
   3 C3             1.2102    -0.6995     0.0600 C.ar    
   4 C4             2.4026    -0.0398    -0.0189 C.ar    
   5 C5             2.3830     1.3663    -0.0823 C.ar    
   6 C6             3.5713     2.1089    -0.1652 C.ar    
   7 C7             3.5135     3.4680    -0.2254 C.ar    
   8 C8             2.2893     4.1343    -0.2059 C.ar    
   9 C9             1.1175     3.4482    -0.1263 C.ar    
  10 C10            1.1347     2.0419    -0.0622 C.ar    
  11 C11           -1.2774    -0.7025     0.1622 C.2     
  12 O12           -1.2853    -1.9162     0.2180 O.2     
  13 N13           -2.4392    -0.0195     0.1790 N.am    
  14 C14           -3.7116    -0.7406     0.2644 C.3     
  15 C15           -4.8254     0.1171    -0.3396 C.3     
  16 C16           -6.1542    -0.6360    -0.2504 C.3     
  17 C17           -6.4759    -0.9307     1.2161 C.3     
  18 C18           -5.3621    -1.7884     1.8201 C.3     
  19 C19           -4.0333    -1.0354     1.7309 C.3     
  20 O20           -4.5249     0.3924    -1.7093 O.3     
  21 C21            3.7056    -0.7967    -0.0371 C.3     
  22 N22            4.2373    -0.8234    -1.4062 N.3     
  23 C23            5.6521    -1.2168    -1.4137 C.3     
  24 C24            6.2097    -1.0934    -2.8335 C.3     
  25 C25            5.4048    -1.9956    -3.7730 C.3     
  26 C26            3.9279    -1.5965    -3.7099 C.3     
  27 C27            3.4364    -1.7054    -2.2647 C.3     
  28 C28            5.9106    -1.8330    -5.1832 C.ar    
  29 C29            5.3324    -2.5526    -6.2122 C.ar    
  30 C30            5.7964    -2.4035    -7.5058 C.ar    
  31 C31            6.8383    -1.5344    -7.7705 C.ar    
  32 C32            7.4159    -0.8141    -6.7417 C.ar    
  33 C33            6.9490    -0.9600    -5.4487 C.ar    
  34 C34            5.5535    -3.3990    -3.3545 C.1     
  35 N35            5.6682    -4.4820    -3.0315 N.1     
  36 H36            1.1905    -1.7782     0.1104 H       
  37 H37            4.5264     1.6050    -0.1808 H       
  38 H38            4.4289     4.0377    -0.2888 H       
  39 H39            2.2709     5.2131    -0.2545 H       
  40 H40            0.1777     3.9801    -0.1119 H       
  41 H41           -2.4328     0.9494     0.1344 H       
  42 H42           -3.6356    -1.6781    -0.2865 H       
  43 H43           -4.9013     1.0546     0.2112 H       
  44 H44           -6.9477    -0.0249    -0.6807 H       
  45 H45           -6.0783    -1.5734    -0.8013 H       
  46 H46           -6.5518     0.0068     1.7669 H       
  47 H47           -7.4226    -1.4672     1.2796 H       
  48 H48           -5.5913    -1.9984     2.8648 H       
  49 H49           -5.2862    -2.7259     1.2692 H       
  50 H50           -3.2398    -1.6464     2.1612 H       
  51 H51           -4.1092    -0.0979     2.2817 H       
  52 H52           -5.1900     0.9333    -2.1568 H       
  53 H53            4.4212    -0.3040     0.6211 H       
  54 H54            3.5378    -1.8171     0.3075 H       
  55 H55            6.2139    -0.5648    -0.7449 H       
  56 H56            5.7438    -2.2491    -1.0760 H       
  57 H57            6.1310    -0.0585    -3.1667 H       
  58 H58            7.2556    -1.4004    -2.8416 H       
  59 H59            3.8132    -0.5696    -4.0569 H       
  60 H60            3.3434    -2.2629    -4.3442 H       
  61 H61            3.5384    -2.7354    -1.9230 H       
  62 H62            2.3889    -1.4082    -2.2140 H       
  63 H63            4.5184    -3.2316    -6.0054 H       
  64 H64            5.3451    -2.9662    -8.3095 H       
  65 H65            7.2012    -1.4185    -8.7810 H       
  66 H66            8.2301    -0.1354    -6.9484 H       
  67 H67            7.3978    -0.3945    -4.6455 H       
@<TRIPOS>BOND
   1    1    2 ar
   2    1   10 ar
   3    2    3 ar
   4    2   11 1
   5    3    4 ar
   6    3   36 1
   7    4    5 ar
   8    4   21 1
   9    5    6 ar
  10    5   10 ar
  11    6    7 ar
  12    6   37 1
  13    7    8 ar
  14    7   38 1
  15    8    9 ar
  16    8   39 1
  17    9   10 ar
  18    9   40 1
  19   11   12 2
  20   11   13 am
  21   13   14 1
  22   13   41 1
  23   14   15 1
  24   14   19 1
  25   14   42 1
  26   15   16 1
  27   15   20 1
  28   15   43 1
  29   16   17 1
  30   16   44 1
  31   16   45 1
  32   17   18 1
  33   17   46 1
  34   17   47 1
  35   18   19 1
  36   18   48 1
  37   18   49 1
  38   19   50 1
  39   19   51 1
  40   20   52 1
  41   21   22 1
  42   21   53 1
  43   21   54 1
  44   22   23 1
  45   22   27 1
  46   23   24 1
  47   23   55 1
  48   23   56 1
  49   24   25 1
  50   24   57 1
  51   24   58 1
  52   25   26 1
  53   25   28 1
  54   25   34 1
  55   26   27 1
  56   26   59 1
  57   26   60 1
  58   27   61 1
  59   27   62 1
  60   28   29 ar
  61   28   33 ar
  62   29   30 ar
  63   29   63 1
  64   30   31 ar
  65   30   64 1
  66   31   32 ar
  67   31   65 1
  68   32   33 ar
  69   32   66 1
  70   33   67 1
  71   34   35 3

#	End of record

