#	Name: ASD04590191
#	Creating user name:	WinNT
#	Creation time:	15. 06. 2019 20:50

#	Modifying user name:	WinNT
#	Modification time:	15. 06. 2019 20:50

#	Program:	/corina/corina34_cracker 3.40 0067  02.08.2006

@<TRIPOS>MOLECULE
ASD04590191
  48   50    0    0    0
SMALL
NO_CHARGES


@<TRIPOS>ATOM
   1 N1            -0.0153     1.2802     0.0091 N.pl3   
   2 N2             0.0021    -0.0041     0.0020 N.2     
   3 C3             1.2455    -0.4440    -0.0122 C.2     
   4 C4             2.0903     0.6961    -0.0142 C.2     
   5 C5             1.2523     1.7667    -0.0004 C.2     
   6 C6             1.6765    -1.8547    -0.0239 C.2     
   7 N7             0.7571    -2.8402    -0.0209 N.am    
   8 N8             3.4930     0.7146    -0.0268 N.am    
   9 O9             2.8611    -2.1284    -0.0362 O.2     
  10 C10            4.1514     1.8906    -0.0268 C.2     
  11 C11            5.6263     1.9101    -0.0401 C.ar    
  12 O12            3.5295     2.9356    -0.0160 O.2     
  13 C13            1.1851    -4.2412    -0.0325 C.3     
  14 C14            0.0782    -5.1076    -0.6368 C.3     
  15 C15            0.5252    -6.5708    -0.6490 C.3     
  16 C16            0.8075    -7.0297     0.7830 C.3     
  17 C17            1.9144    -6.1633     1.3873 C.3     
  18 C18            1.4674    -4.7001     1.3995 C.3     
  19 O19           -0.3800    -6.9009     1.5674 O.3     
  20 C20            6.3151     3.1307    -0.0402 C.ar    
  21 C21            7.7020     3.1371    -0.0523 C.ar    
  22 C22            8.3996     1.9457    -0.0645 C.ar    
  23 C23            7.7224     0.7370    -0.0644 C.ar    
  24 C24            6.3448     0.7119    -0.0468 C.ar    
  25 O25            5.6284     4.3005    -0.0291 O.3     
  26 C26            6.3980     5.5046    -0.0300 C.3     
  27 H27           -0.8184     1.8242     0.0160 H       
  28 H28            1.5405     2.8076     0.0021 H       
  29 H29           -0.1880    -2.6218    -0.0111 H       
  30 H30            3.9890    -0.1189    -0.0354 H       
  31 H31            2.0909    -4.3395    -0.6308 H       
  32 H32           -0.8276    -5.0093    -0.0386 H       
  33 H33           -0.1229    -4.7807    -1.6570 H       
  34 H34           -0.2633    -7.1880    -1.0795 H       
  35 H35            1.4310    -6.6691    -1.2473 H       
  36 H36            1.1260    -8.0721     0.7744 H       
  37 H37            2.1155    -6.4902     2.4075 H       
  38 H38            2.8202    -6.2616     0.7890 H       
  39 H39            2.2560    -4.0829     1.8300 H       
  40 H40            0.5616    -4.6019     1.9977 H       
  41 H41           -0.2744    -7.1746     2.4888 H       
  42 H42            8.2370     4.0752    -0.0524 H       
  43 H43            9.4795     1.9560    -0.0746 H       
  44 H44            8.2768    -0.1898    -0.0741 H       
  45 H45            5.8212    -0.2327    -0.0464 H       
  46 H46            5.7278     6.3642    -0.0204 H       
  47 H47            7.0340     5.5299     0.8549 H       
  48 H48            7.0191     5.5381    -0.9250 H       
@<TRIPOS>BOND
   1    1    2 1
   2    1    5 1
   3    1   27 1
   4    2    3 2
   5    3    4 1
   6    3    6 1
   7    4    5 2
   8    4    8 1
   9    5   28 1
  10    6    7 am
  11    6    9 2
  12    7   13 1
  13    7   29 1
  14    8   10 am
  15    8   30 1
  16   10   11 1
  17   10   12 2
  18   11   20 ar
  19   11   24 ar
  20   13   14 1
  21   13   18 1
  22   13   31 1
  23   14   15 1
  24   14   32 1
  25   14   33 1
  26   15   16 1
  27   15   34 1
  28   15   35 1
  29   16   17 1
  30   16   19 1
  31   16   36 1
  32   17   18 1
  33   17   37 1
  34   17   38 1
  35   18   39 1
  36   18   40 1
  37   19   41 1
  38   20   21 ar
  39   20   25 1
  40   21   22 ar
  41   21   42 1
  42   22   23 ar
  43   22   43 1
  44   23   24 ar
  45   23   44 1
  46   24   45 1
  47   25   26 1
  48   26   46 1
  49   26   47 1
  50   26   48 1

#	End of record

