#	Name: ASD01940371
#	Creating user name:	WinNT
#	Creation time:	15. 06. 2019 20:12

#	Modifying user name:	WinNT
#	Modification time:	15. 06. 2019 20:12

#	Program:	/corina/corina34_cracker 3.40 0067  02.08.2006

@<TRIPOS>MOLECULE
ASD01940371
  35   36    0    0    0
SMALL
NO_CHARGES


@<TRIPOS>ATOM
   1 F1             1.9035     1.5950     2.2857 F       
   2 C2             1.0649     2.1488     1.3828 C.ar    
   3 C3             1.3890     2.1336     0.0327 C.ar    
   4 C4             0.5204     2.7058    -0.8952 C.ar    
   5 C5            -0.6632     3.2876    -0.4661 C.ar    
   6 C6            -0.9805     3.3003     0.8797 C.ar    
   7 C7            -0.1221     2.7275     1.8027 C.ar    
   8 N8             2.5867     1.5447    -0.3959 N.pl3   
   9 N9             0.8425     2.6937    -2.2589 N.am    
  10 C10            2.6332     0.1745    -0.6697 C.ar    
  11 C11            1.4781    -0.5912    -0.5871 C.ar    
  12 C12            1.5273    -1.9453    -0.8582 C.ar    
  13 C13            2.7248    -2.5390    -1.2111 C.ar    
  14 C14            3.8787    -1.7805    -1.2949 C.ar    
  15 C15            3.8362    -0.4242    -1.0311 C.ar    
  16 F16            4.9629     0.3168    -1.1134 F       
  17 F17           -0.4399     2.7374     3.1157 F       
  18 S18            0.4260     3.9766    -3.2195 S.o2    
  19 C19            1.2777     5.3948    -2.4751 C.3     
  20 O20            0.9907     3.6643    -4.4856 O.2     
  21 O21           -0.9802     4.0964    -3.0540 O.2     
  22 C22            2.7735    -4.0163    -1.5049 C.3     
  23 F23            2.5351    -4.2290    -2.8669 F       
  24 F24            4.0357    -4.5172    -1.1686 F       
  25 F25            1.7949    -4.6740    -0.7519 F       
  26 H26           -1.3374     3.7314    -1.1836 H       
  27 H27           -1.9026     3.7543     1.2113 H       
  28 H28            3.3832     2.0879    -0.5026 H       
  29 H29            1.3095     1.9338    -2.6402 H       
  30 H30            0.5419    -0.1291    -0.3108 H       
  31 H31            0.6287    -2.5409    -0.7940 H       
  32 H32            4.8125    -2.2475    -1.5709 H       
  33 H33            2.3529     5.2158    -2.4788 H       
  34 H34            1.0570     6.2940    -3.0503 H       
  35 H35            0.9349     5.5267    -1.4488 H       
@<TRIPOS>BOND
   1    1    2 1
   2    2    3 ar
   3    2    7 ar
   4    3    4 ar
   5    3    8 1
   6    4    5 ar
   7    4    9 1
   8    5    6 ar
   9    5   26 1
  10    6    7 ar
  11    6   27 1
  12    7   17 1
  13    8   10 1
  14    8   28 1
  15    9   18 am
  16    9   29 1
  17   10   11 ar
  18   10   15 ar
  19   11   12 ar
  20   11   30 1
  21   12   13 ar
  22   12   31 1
  23   13   14 ar
  24   13   22 1
  25   14   15 ar
  26   14   32 1
  27   15   16 1
  28   18   19 1
  29   18   20 2
  30   18   21 2
  31   19   33 1
  32   19   34 1
  33   19   35 1
  34   22   23 1
  35   22   24 1
  36   22   25 1

#	End of record

