#	Name: ASD03910112
#	Creating user name:	WinNT
#	Creation time:	15. 06. 2019 20:47

#	Modifying user name:	WinNT
#	Modification time:	15. 06. 2019 20:47

#	Program:	/corina/corina34_cracker 3.40 0067  02.08.2006

@<TRIPOS>MOLECULE
ASD03910112
  38   39    0    0    0
SMALL
NO_CHARGES


@<TRIPOS>ATOM
   1 C1            -0.0173     1.4248     0.0099 C.3     
   2 O2             2.0503     1.5916    -1.2301 O.3     
   3 C3             3.3343     1.9868    -1.4011 C.ar    
   4 C4             4.0165     1.6640    -2.5863 C.ar    
   5 C5             5.3363     2.0725    -2.7575 C.ar    
   6 C6             5.9722     2.8001    -1.7497 C.ar    
   7 C7             5.2806     3.1160    -0.5714 C.ar    
   8 C8             3.9747     2.7164    -0.4065 C.ar    
   9 C9             7.3650     3.2339    -1.9234 C.2     
  10 O10            7.9170     3.8660    -1.0476 O.2     
  11 C11            3.3369     0.8948    -3.6449 C.2     
  12 O12            2.1850     0.5390    -3.4932 O.2     
  13 O13            3.9932     0.5865    -4.7806 O.3     
  14 O14            0.0021    -0.0041     0.0020 O.3     
  15 C15           -1.1985    -0.6365     0.0101 C.ar    
  16 C16           -1.2501    -2.0257     0.0031 C.ar    
  17 C17           -2.4661    -2.6713     0.0113 C.ar    
  18 C18           -3.6499    -1.9279     0.0270 C.ar    
  19 C19           -3.5934    -0.5311     0.0344 C.ar    
  20 C20           -2.3732     0.1065     0.0311 C.ar    
  21 C21            1.4181     1.9544    -0.0010 C.3     
  22 C22           -4.9546    -2.6152     0.0353 C.2     
  23 O23           -5.0017    -3.8293     0.0284 O.2     
  24 O24           -6.0944    -1.8968     0.0505 O.3     
  25 H25           -0.5445     1.7859    -0.8732 H       
  26 H26           -0.5275     1.7763     0.9067 H       
  27 H27            5.8663     1.8273    -3.6660 H       
  28 H28            5.7736     3.6788     0.2074 H       
  29 H29            3.4462     2.9670     0.5014 H       
  30 H30            7.8973     2.9901    -2.8309 H       
  31 H31            3.5061     0.0809    -5.4457 H       
  32 H32           -0.3351    -2.5993    -0.0091 H       
  33 H33           -2.5054    -3.7506     0.0051 H       
  34 H34           -4.5056     0.0469     0.0463 H       
  35 H35           -2.3286     1.1856     0.0410 H       
  36 H36            1.4055     3.0401     0.0945 H       
  37 H37            1.9710     1.5226     0.8333 H       
  38 H38           -6.9252    -2.3916     0.0554 H       
@<TRIPOS>BOND
   1    1   14 1
   2    1   21 1
   3    1   25 1
   4    1   26 1
   5    2    3 1
   6    2   21 1
   7    3    4 ar
   8    3    8 ar
   9    4    5 ar
  10    4   11 1
  11    5    6 ar
  12    5   27 1
  13    6    7 ar
  14    6    9 1
  15    7    8 ar
  16    7   28 1
  17    8   29 1
  18    9   10 2
  19    9   30 1
  20   11   12 2
  21   11   13 1
  22   13   31 1
  23   14   15 1
  24   15   16 ar
  25   15   20 ar
  26   16   17 ar
  27   16   32 1
  28   17   18 ar
  29   17   33 1
  30   18   19 ar
  31   18   22 1
  32   19   20 ar
  33   19   34 1
  34   20   35 1
  35   21   36 1
  36   21   37 1
  37   22   23 2
  38   22   24 1
  39   24   38 1

#	End of record

