#	Name: ASD01841062
#	Creating user name:	WinNT
#	Creation time:	15. 06. 2019 19:38

#	Modifying user name:	WinNT
#	Modification time:	15. 06. 2019 19:38

#	Program:	/corina/corina34_cracker 3.40 0067  02.08.2006

@<TRIPOS>MOLECULE
ASD01841062
  37   39    0    0    0
SMALL
NO_CHARGES


@<TRIPOS>ATOM
   1 S1            -0.0218     1.7544     0.0117 S.3     
   2 C2             0.0021    -0.0041     0.0020 C.2     
   3 N3             1.2179    -0.4337    -0.0119 N.2     
   4 C4             2.2035     0.4630    -0.0165 C.ar    
   5 C5             1.7400     1.7866    -0.0050 C.ar    
   6 C6             2.6421     2.8507    -0.0079 C.ar    
   7 C7             3.9968     2.6120    -0.0225 C.ar    
   8 C8             4.4750     1.3089    -0.0341 C.ar    
   9 C9             3.6063     0.2431    -0.0315 C.ar    
  10 C10            2.1303     4.2680     0.0046 C.3     
  11 O11            4.0918    -1.0252    -0.0425 O.3     
  12 C12            5.5128    -1.1758    -0.0574 C.3     
  13 C13           -1.8356    -4.5076    -0.0034 C.ar    
  14 C14           -1.6256    -5.1956     1.1819 C.ar    
  15 C15           -1.2465    -6.5237     1.1317 C.ar    
  16 N16           -1.0841    -7.1355    -0.0251 N.ar    
  17 C17           -1.2750    -6.5128    -1.1718 C.ar    
  18 C18           -1.6555    -5.1845    -1.2000 C.ar    
  19 C19           -1.1981    -0.8652     0.0096 C.2     
  20 O20           -2.3056    -0.3642     0.0236 O.2     
  21 N21           -1.0653    -2.2064     0.0011 N.am    
  22 C22           -2.2556    -3.0604     0.0086 C.3     
  23 H23            4.6898     3.4403    -0.0254 H       
  24 H24            5.5401     1.1304    -0.0456 H       
  25 H25            2.0167     4.6042     1.0352 H       
  26 H26            2.8390     4.9148    -0.5125 H       
  27 H27            1.1649     4.3102    -0.4998 H       
  28 H28            5.9194    -0.6988    -0.9491 H       
  29 H29            5.9371    -0.7074     0.8307 H       
  30 H30            5.7658    -2.2360    -0.0650 H       
  31 H31           -1.7564    -4.6998     2.1324 H       
  32 H32           -1.0811    -7.0666     2.0505 H       
  33 H33           -1.1319    -7.0469    -2.0995 H       
  34 H34           -1.8106    -4.6800    -2.1423 H       
  35 H35           -0.1816    -2.6062    -0.0101 H       
  36 H36           -2.8594    -2.8500    -0.8742 H       
  37 H37           -2.8413    -2.8595     0.9057 H       
@<TRIPOS>BOND
   1    1    2 1
   2    1    5 1
   3    2    3 2
   4    2   19 1
   5    3    4 1
   6    4    5 ar
   7    4    9 ar
   8    5    6 ar
   9    6    7 ar
  10    6   10 1
  11    7    8 ar
  12    7   23 1
  13    8    9 ar
  14    8   24 1
  15    9   11 1
  16   10   25 1
  17   10   26 1
  18   10   27 1
  19   11   12 1
  20   12   28 1
  21   12   29 1
  22   12   30 1
  23   13   14 ar
  24   13   18 ar
  25   13   22 1
  26   14   15 ar
  27   14   31 1
  28   15   16 ar
  29   15   32 1
  30   16   17 ar
  31   17   18 ar
  32   17   33 1
  33   18   34 1
  34   19   20 2
  35   19   21 am
  36   21   22 1
  37   21   35 1
  38   22   36 1
  39   22   37 1

#	End of record

