#	Name: ASD00310117
#	Creating user name:	WinNT
#	Creation time:	15. 06. 2019 18:33

#	Modifying user name:	WinNT
#	Modification time:	15. 06. 2019 18:33

#	Program:	/corina/corina34_cracker 3.40 0067  02.08.2006

@<TRIPOS>MOLECULE
ASD00310117
  28   28    0    0    0
SMALL
NO_CHARGES


@<TRIPOS>ATOM
   1 C1            -0.0184     1.5028     0.0103 C.2     
   2 C2             0.0021    -0.0041     0.0020 C.3     
   3 O3             1.0197     2.1211     0.0037 O.2     
   4 O4            -1.1898     2.1580     0.0194 O.3     
   5 C5             1.4295    -0.4870    -0.0142 C.ar    
   6 C6             2.1320    -0.6167     1.1754 C.ar    
   7 C7             3.4456    -1.0613     1.1576 C.ar    
   8 C8             4.0518    -1.3742    -0.0449 C.ar    
   9 C9             3.3491    -1.2435    -1.2293 C.ar    
  10 C10            2.0374    -0.8062    -1.2127 C.ar    
  11 O11            1.5340    -0.3081     2.3560 O.3     
  12 C12            2.3174    -0.4655     3.5408 C.3     
  13 Br13           5.8428    -1.9806    -0.0708 Br      
  14 C14           -1.1335     3.6089     0.0270 C.3     
  15 C15           -2.5551     4.1744     0.0369 C.3     
  16 H16           -0.4983    -0.3791     0.8948 H       
  17 H17           -0.5153    -0.3696    -0.8850 H       
  18 H18            3.9945    -1.1627     2.0821 H       
  19 H19            3.8241    -1.4879    -2.1679 H       
  20 H20            1.4893    -0.7095    -2.1383 H       
  21 H21            1.7219    -0.1859     4.4099 H       
  22 H22            2.6302    -1.5055     3.6339 H       
  23 H23            3.1975     0.1748     3.4821 H       
  24 H24           -0.6017     3.9472     0.9164 H       
  25 H25           -0.6102     3.9569    -0.8636 H       
  26 H26           -2.5128     5.2636     0.0426 H       
  27 H27           -3.0869     3.8361    -0.8525 H       
  28 H28           -3.0784     3.8265     0.9275 H       
@<TRIPOS>BOND
   1    1    2 1
   2    1    3 2
   3    1    4 1
   4    2    5 1
   5    2   16 1
   6    2   17 1
   7    4   14 1
   8    5    6 ar
   9    5   10 ar
  10    6    7 ar
  11    6   11 1
  12    7    8 ar
  13    7   18 1
  14    8    9 ar
  15    8   13 1
  16    9   10 ar
  17    9   19 1
  18   10   20 1
  19   11   12 1
  20   12   21 1
  21   12   22 1
  22   12   23 1
  23   14   15 1
  24   14   24 1
  25   14   25 1
  26   15   26 1
  27   15   27 1
  28   15   28 1

#	End of record

