#	Name: ASD01870606
#	Creating user name:	WinNT
#	Creation time:	15. 06. 2019 19:39

#	Modifying user name:	WinNT
#	Modification time:	15. 06. 2019 19:39

#	Program:	/corina/corina34_cracker 3.40 0067  02.08.2006

@<TRIPOS>MOLECULE
ASD01870606
  43   46    0    0    0
SMALL
NO_CHARGES


@<TRIPOS>ATOM
   1 C1            -0.0461     1.4092    -0.0167 C.ar    
   2 C2            -0.0330     0.0194    -0.0272 C.ar    
   3 C3             1.1641    -0.6686    -0.0414 C.ar    
   4 C4             2.3702     0.0164    -0.0448 C.ar    
   5 C5             2.3750     1.4013    -0.0345 C.ar    
   6 C6             1.1540     2.1072    -0.0204 C.ar    
   7 C7             3.4362     2.4301    -0.0348 C.2     
   8 N8             2.8557     3.6436    -0.0217 N.am    
   9 C9             1.5146     3.5386    -0.0119 C.2     
  10 C10            3.5568     4.8589    -0.0181 C.ar    
  11 C11            3.8949     5.4688    -1.2188 C.ar    
  12 C12            4.5846     6.6644    -1.2155 C.ar    
  13 C13            4.9401     7.2577    -0.0108 C.ar    
  14 C14            4.6015     6.6476     1.1899 C.ar    
  15 C15            3.9073     5.4542     1.1860 C.ar    
  16 O16            0.7312     4.4668     0.0007 O.2     
  17 O17            4.6316     2.2158    -0.0444 O.2     
  18 N18            5.6400     8.4698    -0.0072 N.am    
  19 C19            6.5472     8.7271    -0.9701 C.2     
  20 C20            7.1949    10.0409    -1.0350 C.2     
  21 O21            6.8288     7.8688    -1.7859 O.2     
  22 C22            8.1264    10.4319    -1.9539 C.2     
  23 C23            8.4690    11.7570    -1.6425 C.2     
  24 C24            7.7409    12.1123    -0.5610 C.2     
  25 O25            6.9707    11.0774    -0.2009 O.3     
  26 C26            8.6799     9.6013    -3.0830 C.3     
  27 C27            3.5347     4.7950     2.4890 C.3     
  28 F28           -1.2203     2.0773    -0.0085 F       
  29 H29           -0.9652    -0.5260    -0.0239 H       
  30 H30            1.1613    -1.7486    -0.0495 H       
  31 H31            3.3026    -0.5285    -0.0552 H       
  32 H32            3.6185     5.0075    -2.1554 H       
  33 H33            4.8482     7.1384    -2.1495 H       
  34 H34            4.8781     7.1085     2.1266 H       
  35 H35            5.4720     9.1247     0.6884 H       
  36 H36            9.1809    12.3760    -2.1682 H       
  37 H37            7.7720    13.0739    -0.0702 H       
  38 H38            8.0637     9.7390    -3.9714 H       
  39 H39            9.7017     9.9145    -3.2974 H       
  40 H40            8.6748     8.5496    -2.7967 H       
  41 H41            4.3351     4.1226     2.7979 H       
  42 H42            3.3863     5.5582     3.2529 H       
  43 H43            2.6133     4.2274     2.3586 H       
@<TRIPOS>BOND
   1    1    2 ar
   2    1    6 ar
   3    1   28 1
   4    2    3 ar
   5    2   29 1
   6    3    4 ar
   7    3   30 1
   8    4    5 ar
   9    4   31 1
  10    5    7 1
  11    5    6 ar
  12    6    9 1
  13    7    8 am
  14    7   17 2
  15    8    9 am
  16    8   10 1
  17    9   16 2
  18   10   11 ar
  19   10   15 ar
  20   11   12 ar
  21   11   32 1
  22   12   13 ar
  23   12   33 1
  24   13   14 ar
  25   13   18 1
  26   14   15 ar
  27   14   34 1
  28   15   27 1
  29   18   19 am
  30   18   35 1
  31   19   20 1
  32   19   21 2
  33   20   22 2
  34   20   25 1
  35   22   23 1
  36   22   26 1
  37   23   24 2
  38   23   36 1
  39   24   25 1
  40   24   37 1
  41   26   38 1
  42   26   39 1
  43   26   40 1
  44   27   41 1
  45   27   42 1
  46   27   43 1

#	End of record

