#	Name: ASD03080028
#	Creating user name:	WinNT
#	Creation time:	15. 06. 2019 20:26

#	Modifying user name:	WinNT
#	Modification time:	15. 06. 2019 20:26

#	Program:	/corina/corina34_cracker 3.40 0067  02.08.2006

@<TRIPOS>MOLECULE
ASD03080028
  39   40    0    0    0
SMALL
NO_CHARGES


@<TRIPOS>ATOM
   1 C1            -0.0184     1.5028     0.0103 C.2     
   2 C2             0.0021    -0.0041     0.0020 C.3     
   3 C3             1.2461     2.2560     0.0023 C.ar    
   4 C4             1.2279     3.6550     0.0100 C.ar    
   5 C5             2.4111     4.3582     0.0029 C.ar    
   6 C6             3.6297     3.6757    -0.0124 C.ar    
   7 C7             3.6493     2.2791    -0.0200 C.ar    
   8 C8             2.4676     1.5735    -0.0072 C.ar    
   9 O9             5.0353     5.7675    -0.0150 O.3     
  10 N10            6.2113     6.0636    -0.0247 N.2     
  11 C11            6.9514     4.9846    -0.0376 C.2     
  12 N12            6.1174     3.9241    -0.0353 N.2     
  13 C13            4.9001     4.4324    -0.0209 C.2     
  14 C14            9.1033     3.7140    -0.0659 C.ar    
  15 C15            8.4350     4.9363    -0.0525 C.ar    
  16 C16            9.1837     6.1158    -0.0537 C.ar    
  17 C17           10.5647     6.0172    -0.0683 C.ar    
  18 C18           11.1532     4.7661    -0.0811 C.ar    
  19 N19           10.4196     3.6696    -0.0796 N.ar    
  20 F20           -1.3104    -0.4883     0.0119 F       
  21 F21            0.6569    -0.4552    -1.1490 F       
  22 F22            0.6787    -0.4675     1.1354 F       
  23 O23           -1.0766     2.0947     0.0185 O.2     
  24 H24            0.2858     4.1830     0.0211 H       
  25 H25            2.3973     5.4380     0.0089 H       
  26 H26            4.5922     1.7526    -0.0322 H       
  27 H27            2.4831     0.4936    -0.0086 H       
  28 H28            8.5369     2.7944    -0.0606 H       
  29 H29            8.6975     7.0802    -0.0439 H       
  30 H30           11.1756     6.9078    -0.0701 H       
  31 H31           12.2301     4.6852    -0.0929 H       
  32 C32           18.4015    14.0684     7.2822 C.2     
  33 C33           18.4220    12.5616     7.2739 C.3     
  34 O34           19.4396    14.6867     7.2756 O.2     
  35 O35           17.2301    14.7237     7.2913 O.3     
  36 F36           19.7471    12.1133     7.2589 F       
  37 F37           17.7798    12.0802     8.4198 F       
  38 F38           17.7580    12.0925     6.1354 F       
  39 H39           17.2676    15.6900     7.2964 H       
@<TRIPOS>BOND
   1    1    2 1
   2    1    3 1
   3    1   23 2
   4    2   20 1
   5    2   21 1
   6    2   22 1
   7    3    4 ar
   8    3    8 ar
   9    4    5 ar
  10    4   24 1
  11    5    6 ar
  12    5   25 1
  13    6    7 ar
  14    6   13 1
  15    7    8 ar
  16    7   26 1
  17    8   27 1
  18    9   10 1
  19    9   13 1
  20   10   11 2
  21   11   12 1
  22   11   15 1
  23   12   13 2
  24   14   15 ar
  25   14   19 ar
  26   14   28 1
  27   15   16 ar
  28   16   17 ar
  29   16   29 1
  30   17   18 ar
  31   17   30 1
  32   18   19 ar
  33   18   31 1
  34   32   33 1
  35   32   34 2
  36   32   35 1
  37   33   36 1
  38   33   37 1
  39   33   38 1
  40   35   39 1

#	End of record

