#	Name: ASD01901322
#	Creating user name:	WinNT
#	Creation time:	15. 06. 2019 19:53

#	Modifying user name:	WinNT
#	Modification time:	15. 06. 2019 19:53

#	Program:	/corina/corina34_cracker 3.40 0067  02.08.2006

@<TRIPOS>MOLECULE
ASD01901322
  39   42    0    0    0
SMALL
NO_CHARGES


@<TRIPOS>ATOM
   1 C1            -0.0167     1.3808     0.0096 C.ar    
   2 C2             0.0021    -0.0041     0.0020 C.ar    
   3 C3             1.2136    -0.6820    -0.0127 C.ar    
   4 C4             2.4033     0.0213    -0.0199 C.ar    
   5 C5             2.3936     1.4019    -0.0128 C.ar    
   6 C6             1.1820     2.0898     0.0020 C.ar    
   7 C7             1.1688     3.5739     0.0096 C.2     
   8 N8             0.6237     5.6010    -1.0711 N.2     
   9 C9             0.6326     4.2906    -1.0823 C.2     
  10 C10            1.6705     4.2659     1.0762 C.2     
  11 C11            1.1189     6.2884    -0.0308 C.2     
  12 N12            1.2153     7.5897     0.2017 N.2     
  13 N13            1.6431     5.6287     1.0510 N.pl3   
  14 C14            2.0584     6.5806     1.9428 C.2     
  15 C15            1.7835     7.7836     1.3956 C.2     
  16 C16            2.0700     9.1222     2.0258 C.3     
  17 O17            2.6823     8.9266     3.3021 O.3     
  18 C18            3.0074    10.0415     4.0079 C.ar    
  19 C19            2.7373    11.2979     3.4853 C.ar    
  20 C20            3.6047     9.9251     5.2546 C.ar    
  21 C21            3.9342    11.0600     5.9700 C.ar    
  22 C22            3.6688    12.3111     5.4447 C.ar    
  23 C23            3.0687    12.4298     4.2047 C.ar    
  24 O24           -1.1656    -0.6995     0.0094 O.3     
  25 H25           -0.9584     1.9095     0.0170 H       
  26 H26            1.2263    -1.7619    -0.0183 H       
  27 H27            3.3432    -0.5106    -0.0306 H       
  28 H28            3.3250     1.9486    -0.0180 H       
  29 H29            0.2287     3.7570    -1.9299 H       
  30 H30            2.0819     3.7413     1.9258 H       
  31 H31            2.5192     6.4027     2.9033 H       
  32 H32            2.7429     9.6898     1.3831 H       
  33 H33            1.1371     9.6720     2.1509 H       
  34 H34            2.2686    11.3911     2.5168 H       
  35 H35            3.8116     8.9480     5.6656 H       
  36 H36            4.3992    10.9699     6.9406 H       
  37 H37            3.9268    13.1972     6.0057 H       
  38 H38            2.8586    13.4081     3.7983 H       
  39 H39           -1.5119    -0.8960    -0.8718 H       
@<TRIPOS>BOND
   1    1    2 ar
   2    1    6 ar
   3    1   25 1
   4    2    3 ar
   5    2   24 1
   6    3    4 ar
   7    3   26 1
   8    4    5 ar
   9    4   27 1
  10    5    6 ar
  11    5   28 1
  12    6    7 1
  13    7   10 2
  14    7    9 1
  15    8    9 2
  16    8   11 1
  17    9   29 1
  18   10   13 1
  19   10   30 1
  20   11   13 1
  21   11   12 2
  22   12   15 1
  23   13   14 1
  24   14   15 2
  25   14   31 1
  26   15   16 1
  27   16   17 1
  28   16   32 1
  29   16   33 1
  30   17   18 1
  31   18   20 ar
  32   18   19 ar
  33   19   23 ar
  34   19   34 1
  35   20   21 ar
  36   20   35 1
  37   21   22 ar
  38   21   36 1
  39   22   23 ar
  40   22   37 1
  41   23   38 1
  42   24   39 1

#	End of record

