#	Name: ASD04660039
#	Creating user name:	WinNT
#	Creation time:	15. 06. 2019 20:52

#	Modifying user name:	WinNT
#	Modification time:	15. 06. 2019 20:52

#	Program:	/corina/corina34_cracker 3.40 0067  02.08.2006

@<TRIPOS>MOLECULE
ASD04660039
  68   72    0    0    0
SMALL
NO_CHARGES


@<TRIPOS>ATOM
   1 C1            -1.5502     1.5890    -0.6057 C.3     
   2 C2            -1.3959     0.0673    -0.5700 C.3     
   3 C3            -0.2435    -0.3067     0.3642 C.3     
   4 C4            -0.5416     0.2088     1.7736 C.3     
   5 C5            -0.6959     1.7306     1.7379 C.3     
   6 C6            -1.8483     2.1046     0.8036 C.3     
   7 C7             0.6004     2.3628     1.2271 C.3     
   8 C8             0.8985     1.8472    -0.1822 C.3     
   9 C9             1.0528     0.3255    -0.1465 C.3     
  10 C10           -0.2539     2.2212    -1.1165 C.3     
  11 C11           -0.0915    -1.8056     0.3994 C.ar    
  12 C12            0.8926    -2.3814     1.1816 C.ar    
  13 C13            1.0339    -3.7552     1.2155 C.ar    
  14 C14            0.1875    -4.5572     0.4639 C.ar    
  15 C15           -0.7991    -3.9771    -0.3201 C.ar    
  16 C16           -0.9400    -2.6030    -0.3462 C.ar    
  17 O17            0.3248    -5.9089     0.4952 O.3     
  18 C18           -0.5816    -6.6718    -0.3038 C.3     
  19 C19           -0.2753    -8.1619    -0.1406 C.3     
  20 C20           -1.3220    -8.9834    -0.8960 C.3     
  21 O21            1.0224    -8.4421    -0.6692 O.3     
  22 N22           -1.0082   -10.4128    -0.7681 N.3     
  23 C23           -2.0432   -11.2383    -1.4059 C.3     
  24 C24           -1.6404   -12.7124    -1.3208 C.3     
  25 N25           -1.4650   -13.0891     0.0888 N.3     
  26 C26           -0.4300   -12.2635     0.7266 C.3     
  27 C27           -0.8328   -10.7894     0.6415 C.3     
  28 C28           -1.1512   -14.5184     0.2167 C.3     
  29 C29           -0.8840   -14.8525     1.6856 C.3     
  30 O30           -2.0579   -14.5862     2.4558 O.3     
  31 H31           -2.3713     1.8555    -1.2713 H       
  32 H32           -2.3194    -0.3831    -0.2062 H       
  33 H33           -1.1836    -0.3000    -1.5741 H       
  34 H34           -1.4651    -0.2416     2.1374 H       
  35 H35            0.2795    -0.0576     2.4391 H       
  36 H36           -0.9082     2.0979     2.7419 H       
  37 H37           -1.9582     3.1888     0.7782 H       
  38 H38           -2.7718     1.6542     1.1675 H       
  39 H39            0.4905     3.4470     1.2017 H       
  40 H40            1.4215     2.0964     1.8927 H       
  41 H41            1.8220     2.2976    -0.5461 H       
  42 H42            1.8739     0.0590     0.5191 H       
  43 H43            1.2652    -0.0418    -1.1506 H       
  44 H44           -0.0416     1.8539    -2.1205 H       
  45 H45           -0.3639     3.3054    -1.1419 H       
  46 H46            1.5515    -1.7566     1.7662 H       
  47 H47            1.8030    -4.2044     1.8263 H       
  48 H48           -1.4593    -4.5993    -0.9061 H       
  49 H49           -1.7079    -2.1509    -0.9564 H       
  50 H50           -1.6042    -6.4738     0.0175 H       
  51 H51           -0.4687    -6.3901    -1.3507 H       
  52 H52           -0.3013    -8.4245     0.9170 H       
  53 H53           -2.3088    -8.7891    -0.4759 H       
  54 H54           -1.3136    -8.7024    -1.9491 H       
  55 H55            1.1183    -8.2322    -1.6083 H       
  56 H56           -2.9934   -11.0908    -0.8928 H       
  57 H57           -2.1456   -10.9491    -2.4519 H       
  58 H58           -2.4204   -13.3289    -1.7676 H       
  59 H59           -0.7039   -12.8651    -1.8573 H       
  60 H60           -0.3276   -12.5527     1.7725 H       
  61 H61            0.5203   -12.4111     0.2135 H       
  62 H62           -0.0527   -10.1729     1.0883 H       
  63 H63           -1.7693   -10.6368     1.1779 H       
  64 H64           -1.9939   -15.1090    -0.1428 H       
  65 H65           -0.2660   -14.7505    -0.3755 H       
  66 H66           -0.6212   -15.9064     1.7766 H       
  67 H67           -0.0612   -14.2397     2.0538 H       
  68 H68           -1.9608   -14.7756     3.3991 H       
@<TRIPOS>BOND
   1    1    2 1
   2    1   10 1
   3    1    6 1
   4    1   31 1
   5    2    3 1
   6    2   32 1
   7    2   33 1
   8    3    4 1
   9    3   11 1
  10    3    9 1
  11    4    5 1
  12    4   34 1
  13    4   35 1
  14    5    6 1
  15    5    7 1
  16    5   36 1
  17    6   37 1
  18    6   38 1
  19    7    8 1
  20    7   39 1
  21    7   40 1
  22    8    9 1
  23    8   10 1
  24    8   41 1
  25    9   42 1
  26    9   43 1
  27   10   44 1
  28   10   45 1
  29   11   12 ar
  30   11   16 ar
  31   12   13 ar
  32   12   46 1
  33   13   14 ar
  34   13   47 1
  35   14   15 ar
  36   14   17 1
  37   15   16 ar
  38   15   48 1
  39   16   49 1
  40   17   18 1
  41   18   19 1
  42   18   50 1
  43   18   51 1
  44   19   20 1
  45   19   21 1
  46   19   52 1
  47   20   22 1
  48   20   53 1
  49   20   54 1
  50   21   55 1
  51   22   23 1
  52   22   27 1
  53   23   24 1
  54   23   56 1
  55   23   57 1
  56   24   25 1
  57   24   58 1
  58   24   59 1
  59   25   26 1
  60   25   28 1
  61   26   27 1
  62   26   60 1
  63   26   61 1
  64   27   62 1
  65   27   63 1
  66   28   29 1
  67   28   64 1
  68   28   65 1
  69   29   30 1
  70   29   66 1
  71   29   67 1
  72   30   68 1

#	End of record

