#	Name: ASD01912671
#	Creating user name:	WinNT
#	Creation time:	15. 06. 2019 20:00

#	Modifying user name:	WinNT
#	Modification time:	15. 06. 2019 20:00

#	Program:	/corina/corina34_cracker 3.40 0067  02.08.2006

@<TRIPOS>MOLECULE
ASD01912671
  43   46    0    0    0
SMALL
NO_CHARGES


@<TRIPOS>ATOM
   1 C1            -0.0165     1.3669     0.0096 C.2     
   2 N2             0.0021    -0.0041     0.0020 N.pl3   
   3 C3            -1.2021    -0.6918     0.0098 C.2     
   4 C4            -2.3630    -0.0492     0.0239 C.2     
   5 N5            -2.4358     1.3306     0.0320 N.am    
   6 C6            -1.3019     2.0667     0.0309 C.2     
   7 C7             1.3016     1.7837    -0.0008 C.2     
   8 C8             2.0550     0.6111    -0.0143 C.2     
   9 N9             1.2243    -0.4045    -0.0118 N.2     
  10 O10           -1.3489     3.2837     0.0380 O.2     
  11 C11           -3.6839     1.9663     0.0464 C.ar    
  12 C12            3.5595     0.5250    -0.0295 C.3     
  13 O13            4.1121     1.8428    -0.0282 O.3     
  14 C14            5.4673     1.9436    -0.0410 C.ar    
  15 C15            6.0712     3.1926    -0.0405 C.ar    
  16 C16            7.4489     3.2924    -0.0536 C.ar    
  17 C17            8.2260     2.1488    -0.0672 C.ar    
  18 C18            7.6265     0.9028    -0.0682 C.ar    
  19 C19            6.2492     0.7977    -0.0489 C.ar    
  20 C20           -4.3170     2.2899    -1.1518 C.ar    
  21 C21           -5.5518     2.9183    -1.1312 C.ar    
  22 C22           -6.1525     3.2231     0.0760 C.ar    
  23 C23           -5.5247     2.9022     1.2657 C.ar    
  24 C24           -4.2959     2.2704     1.2542 C.ar    
  25 O25           -3.7245     1.9902    -2.3382 O.3     
  26 C26           -4.4319     2.3515    -3.5261 C.3     
  27 H27           -1.1949    -1.7717     0.0039 H       
  28 H28           -3.2785    -0.6220     0.0289 H       
  29 H29            1.6685     2.7994     0.0008 H       
  30 H30            3.9016    -0.0133     0.8543 H       
  31 H31            3.8841    -0.0042    -0.9255 H       
  32 H32            5.4647     4.0862    -0.0302 H       
  33 H33            7.9195     4.2644    -0.0536 H       
  34 H34            9.3029     2.2289    -0.0775 H       
  35 H35            8.2356     0.0110    -0.0796 H       
  36 H36            5.7814    -0.1758    -0.0497 H       
  37 H37           -6.0448     3.1703    -2.0584 H       
  38 H38           -7.1146     3.7135     0.0900 H       
  39 H39           -5.9978     3.1428     2.2063 H       
  40 H40           -3.8080     2.0210     2.1848 H       
  41 H41           -3.8499     2.0568    -4.3994 H       
  42 H42           -5.3961     1.8434    -3.5437 H       
  43 H43           -4.5892     3.4300    -3.5415 H       
@<TRIPOS>BOND
   1    1    2 1
   2    1    7 2
   3    1    6 1
   4    2    3 1
   5    2    9 1
   6    3    4 2
   7    3   27 1
   8    4    5 1
   9    4   28 1
  10    5    6 am
  11    5   11 1
  12    6   10 2
  13    7    8 1
  14    7   29 1
  15    8    9 2
  16    8   12 1
  17   11   20 ar
  18   11   24 ar
  19   12   13 1
  20   12   30 1
  21   12   31 1
  22   13   14 1
  23   14   15 ar
  24   14   19 ar
  25   15   16 ar
  26   15   32 1
  27   16   17 ar
  28   16   33 1
  29   17   18 ar
  30   17   34 1
  31   18   19 ar
  32   18   35 1
  33   19   36 1
  34   20   21 ar
  35   20   25 1
  36   21   22 ar
  37   21   37 1
  38   22   23 ar
  39   22   38 1
  40   23   24 ar
  41   23   39 1
  42   24   40 1
  43   25   26 1
  44   26   41 1
  45   26   42 1
  46   26   43 1

#	End of record

