#	Name: ASD02150005
#	Creating user name:	WinNT
#	Creation time:	15. 06. 2019 20:18

#	Modifying user name:	WinNT
#	Modification time:	15. 06. 2019 20:18

#	Program:	/corina/corina34_cracker 3.40 0067  02.08.2006

@<TRIPOS>MOLECULE
ASD02150005
  59   63    0    0    0
SMALL
NO_CHARGES


@<TRIPOS>ATOM
   1 C1             0.1241     1.3749     0.3350 C.3     
   2 N2             0.0254    -0.0987     0.5093 N.am    
   3 C3             0.5967    -1.0969    -0.3059 C.2     
   4 C4             1.6036    -0.7761    -1.1432 C.2     
   5 C5             2.1844     0.5762    -1.3967 C.3     
   6 S6             1.8770     1.7282    -0.0241 S.3     
   7 C7            -0.2966     1.5553     1.7822 C.3     
   8 C8            -0.5815     0.0755     1.6773 C.2     
   9 N9             0.7995     1.8968     2.6923 N.am    
  10 C10            0.5429     2.5597     3.8373 C.2     
  11 O11           -0.5830     2.9508     4.0737 O.2     
  12 C12            1.6335     2.8115     4.8076 C.2     
  13 N13            1.3669     3.3560     5.9594 N.2     
  14 C14            3.0273     2.4436     4.4672 C.2     
  15 N15            3.3099     1.7975     3.3630 N.2     
  16 N16            4.0338     2.7592     5.2627 N.2     
  17 C17            5.2333     2.3898     4.8752 C.2     
  18 S18            4.9956     1.5843     3.3713 S.3     
  19 N19            6.4308     2.6040     5.5325 N.pl3   
  20 O20           -1.1665    -0.6931     2.4113 O.2     
  21 S21            2.3193    -2.1103    -2.0446 S.3     
  22 C22            1.8186    -1.6794    -3.6781 C.2     
  23 S23            0.9476    -0.2147    -4.1224 S.3     
  24 N24            2.0391    -2.3888    -4.7413 N.2     
  25 C25            1.5880    -1.9066    -5.8910 C.2     
  26 C26            0.9508    -0.7236    -5.8095 C.2     
  27 C27            1.7744    -2.6193    -7.1768 C.ar    
  28 C28            2.4431    -3.8468    -7.2277 C.ar    
  29 C29            2.5945    -4.4760    -8.4454 C.ar    
  30 C30            1.4771    -2.7819    -9.5463 C.ar    
  31 C31            1.2814    -2.0857    -8.3722 C.ar    
  32 O32            0.0232     3.6024     6.3321 O.3     
  33 C33           -1.6067     4.4221     7.9169 C.3     
  34 C34           -0.1218     4.2030     7.6206 C.3     
  35 N35            2.1191    -3.9350    -9.5513 N.ar    
  36 C36            2.3043    -4.6390   -10.8226 C.3     
  37 C37            0.1183    -2.4230    -0.2457 C.2     
  38 O38            0.5778    -3.3367    -1.1003 O.co2   
  39 O39           -0.7932    -2.7619     0.6657 O.co2   
  40 H40           -0.5643     1.7930    -0.3995 H       
  41 H41            3.2603     0.4773    -1.5407 H       
  42 H42            1.7442     0.9850    -2.3062 H       
  43 H43           -1.1826     2.1753     1.9191 H       
  44 H44            1.7099     1.6458     2.4707 H       
  45 H45            6.4413     3.0758     6.3799 H       
  46 H46            7.2604     2.2824     5.1461 H       
  47 H47            0.5178    -0.1794    -6.6358 H       
  48 H48            2.8353    -4.2950    -6.3267 H       
  49 H49            3.1094    -5.4241    -8.4948 H       
  50 H50            1.1001    -2.3780   -10.4743 H       
  51 H51            0.7548    -1.1428    -8.3754 H       
  52 H52           -2.1255     3.4636     7.9024 H       
  53 H53           -1.7174     4.8803     8.8997 H       
  54 H54           -2.0353     5.0787     7.1597 H       
  55 H55            0.3068     3.5464     8.3778 H       
  56 H56            0.3969     5.1615     7.6351 H       
  57 H57            1.4591    -5.3053   -10.9954 H       
  58 H58            2.3669    -3.9137   -11.6338 H       
  59 H59            3.2246    -5.2218   -10.7845 H       
@<TRIPOS>BOND
   1    1    2 1
   2    1    6 1
   3    1    7 1
   4    1   40 1
   5    2    3 1
   6    2    8 am
   7    3    4 2
   8    3   37 1
   9    4    5 1
  10    4   21 1
  11    5    6 1
  12    5   41 1
  13    5   42 1
  14    7    8 1
  15    7    9 1
  16    7   43 1
  17    8   20 2
  18    9   10 am
  19    9   44 1
  20   10   11 2
  21   10   12 1
  22   12   13 2
  23   12   14 1
  24   13   32 1
  25   14   15 2
  26   14   16 1
  27   15   18 1
  28   16   17 2
  29   17   18 1
  30   17   19 1
  31   19   45 1
  32   19   46 1
  33   21   22 1
  34   22   23 1
  35   22   24 2
  36   23   26 1
  37   24   25 1
  38   25   26 2
  39   25   27 1
  40   26   47 1
  41   27   28 ar
  42   27   31 ar
  43   28   29 ar
  44   28   48 1
  45   29   35 ar
  46   29   49 1
  47   30   31 ar
  48   30   35 ar
  49   30   50 1
  50   31   51 1
  51   32   34 1
  52   33   34 1
  53   33   52 1
  54   33   53 1
  55   33   54 1
  56   34   55 1
  57   34   56 1
  58   35   36 1
  59   36   57 1
  60   36   58 1
  61   36   59 1
  62   37   38 ar
  63   37   39 ar

#	End of record

