#	Name: ASD03082232
#	Creating user name:	WinNT
#	Creation time:	15. 06. 2019 20:27

#	Modifying user name:	WinNT
#	Modification time:	15. 06. 2019 20:27

#	Program:	/corina/corina34_cracker 3.40 0067  02.08.2006

@<TRIPOS>MOLECULE
ASD03082232
  45   47    0    0    0
SMALL
NO_CHARGES


@<TRIPOS>ATOM
   1 N1            -0.0457     1.1762    -0.3487 N.am    
   2 N2             0.1459    -0.2063    -0.1923 N.2     
   3 C3             1.4043    -0.3845     0.1353 C.2     
   4 N4             2.0166     0.8008     0.1947 N.2     
   5 C5             1.1617     1.7591    -0.0937 C.2     
   6 N6             2.0069    -1.6171     0.3824 N.pl3   
   7 C7             1.2328    -2.7820     0.4054 C.ar    
   8 C8             1.8104    -4.0072     0.0978 C.ar    
   9 C9             1.0443    -5.1559     0.1211 C.ar    
  10 C10           -0.2991    -5.0869     0.4504 C.ar    
  11 C11           -0.8770    -3.8668     0.7573 C.ar    
  12 C12           -0.1130    -2.7160     0.7413 C.ar    
  13 C13            1.6705    -6.4854    -0.2126 C.3     
  14 F14            3.0251    -6.3014    -0.5099 F       
  15 F15            1.5463    -7.3473     0.8824 F       
  16 F16            1.0213    -7.0418    -1.3199 F       
  17 C17            2.7667     5.0620    -0.8974 C.ar    
  18 C18            2.5281     3.7032    -0.8869 C.ar    
  19 C19            1.4568     3.2083    -0.1345 C.ar    
  20 C20            0.6724     4.1221     0.5775 C.ar    
  21 C21            0.9832     5.4652     0.5108 C.ar    
  22 N22            2.0021     5.8895    -0.2113 N.ar    
  23 C23           -1.1905     1.8012    -0.6883 C.2     
  24 N24           -2.2808     1.0796    -1.0154 N.am    
  25 F25           -1.0470    -6.2118     0.4717 F       
  26 C26           -3.5252     1.7590    -1.3845 C.3     
  27 O27           -1.2396     3.0152    -0.6996 O.2     
  28 C28            3.4070     2.7661    -1.6746 C.3     
  29 C29           -4.5985     0.7175    -1.7074 C.3     
  30 H30            2.9629    -1.6670     0.5384 H       
  31 H31            2.8579    -4.0614    -0.1598 H       
  32 H32           -1.9249    -3.8153     1.0135 H       
  33 H33           -0.5631    -1.7651     0.9856 H       
  34 H34            3.5937     5.4531    -1.4715 H       
  35 H35           -0.1638     3.7817     1.1702 H       
  36 H36            0.3837     6.1784     1.0569 H       
  37 H37           -2.2416     0.1104    -1.0064 H       
  38 H38           -3.8601     2.3803    -0.5539 H       
  39 H39           -3.3515     2.3851    -2.2597 H       
  40 H40            4.2385     2.4376    -1.0511 H       
  41 H41            2.8246     1.9001    -1.9893 H       
  42 H42            3.7935     3.2827    -2.5531 H       
  43 H43           -5.5243     1.2230    -1.9820 H       
  44 H44           -4.2636     0.0961    -2.5380 H       
  45 H45           -4.7721     0.0914    -0.8322 H       
@<TRIPOS>BOND
   1    1    2 1
   2    1    5 1
   3    1   23 am
   4    2    3 2
   5    3    4 1
   6    3    6 1
   7    4    5 2
   8    5   19 1
   9    6    7 1
  10    6   30 1
  11    7    8 ar
  12    7   12 ar
  13    8    9 ar
  14    8   31 1
  15    9   10 ar
  16    9   13 1
  17   10   11 ar
  18   10   25 1
  19   11   12 ar
  20   11   32 1
  21   12   33 1
  22   13   14 1
  23   13   15 1
  24   13   16 1
  25   17   18 ar
  26   17   22 ar
  27   17   34 1
  28   18   19 ar
  29   18   28 1
  30   19   20 ar
  31   20   21 ar
  32   20   35 1
  33   21   22 ar
  34   21   36 1
  35   23   24 am
  36   23   27 2
  37   24   26 1
  38   24   37 1
  39   26   29 1
  40   26   38 1
  41   26   39 1
  42   28   40 1
  43   28   41 1
  44   28   42 1
  45   29   43 1
  46   29   44 1
  47   29   45 1

#	End of record

