#	Name: ASD01148838
#	Creating user name:	WinNT
#	Creation time:	15. 06. 2019 19:03

#	Modifying user name:	WinNT
#	Modification time:	15. 06. 2019 19:03

#	Program:	/corina/corina34_cracker 3.40 0067  02.08.2006

@<TRIPOS>MOLECULE
ASD01148838
  49   51    0    0    0
SMALL
NO_CHARGES


@<TRIPOS>ATOM
   1 C1            -0.0079     1.2396     0.3237 C.2     
   2 O2             0.0086     0.0339     0.4636 O.2     
   3 N3             3.4009     2.4469    -0.0808 N.pl3   
   4 C4             2.5240     1.4411     0.1047 C.2     
   5 C5             1.2485     1.9739     0.1407 C.2     
   6 C6             1.4046     3.4198    -0.0406 C.2     
   7 C7             2.7369     3.6468    -0.1700 C.2     
   8 C8             2.8739    -0.0177     0.2478 C.3     
   9 C9             4.7909     2.2925    -0.1646 C.ar    
  10 C10            5.3545     1.6466    -1.2569 C.ar    
  11 C11            6.7251     1.4964    -1.3369 C.ar    
  12 C12            7.5360     1.9884    -0.3306 C.ar    
  13 C13            6.9777     2.6320     0.7585 C.ar    
  14 C14            5.6081     2.7900     0.8417 C.ar    
  15 S15            9.2840     1.7942    -0.4360 S.o2    
  16 O16            9.7768     1.8667     0.8948 O.2     
  17 O17            9.5134     0.6820    -1.2902 O.2     
  18 N18            9.8779     3.1220    -1.2276 N.am    
  19 C19           11.1486     3.2330    -1.4409 C.2     
  20 N20           11.6399     4.3315    -2.0957 N.pl3   
  21 C21           10.7258     5.3805    -2.5543 C.3     
  22 C22           13.0793     4.4572    -2.3374 C.3     
  23 C23            3.3695     4.9680    -0.3740 C.ar    
  24 C24            4.6464     5.0548    -0.9301 C.ar    
  25 C25            5.2314     6.2899    -1.1179 C.ar    
  26 C26            4.5541     7.4421    -0.7559 C.ar    
  27 C27            3.2871     7.3621    -0.2032 C.ar    
  28 C28            2.6894     6.1329    -0.0164 C.ar    
  29 Cl29           5.2967     8.9928    -0.9952 Cl      
  30 Cl30          -1.5191     2.0940     0.3329 Cl      
  31 H31            0.6165     4.1579    -0.0668 H       
  32 H32            3.0373    -0.2507     1.3000 H       
  33 H33            2.0558    -0.6270    -0.1365 H       
  34 H34            3.7817    -0.2307    -0.3167 H       
  35 H35            4.7217     1.2619    -2.0430 H       
  36 H36            7.1641     0.9938    -2.1862 H       
  37 H37            7.6135     3.0149     1.5431 H       
  38 H38            5.1729     3.2964     1.6906 H       
  39 H39           11.8225     2.4597    -1.1028 H       
  40 H40           10.6074     6.1278    -1.7696 H       
  41 H41           11.1341     5.8532    -3.4476 H       
  42 H42            9.7558     4.9410    -2.7868 H       
  43 H43           13.3280     4.0013    -3.2957 H       
  44 H44           13.3541     5.5119    -2.3546 H       
  45 H45           13.6268     3.9520    -1.5417 H       
  46 H46            5.1758     4.1568    -1.2125 H       
  47 H47            6.2198     6.3583    -1.5479 H       
  48 H48            2.7637     8.2641     0.0776 H       
  49 H49            1.6990     6.0720     0.4100 H       
@<TRIPOS>BOND
   1    1    2 2
   2    1    5 1
   3    1   30 1
   4    3    4 1
   5    3    7 1
   6    3    9 1
   7    4    5 2
   8    4    8 1
   9    5    6 1
  10    6    7 2
  11    6   31 1
  12    7   23 1
  13    8   32 1
  14    8   33 1
  15    8   34 1
  16    9   10 ar
  17    9   14 ar
  18   10   11 ar
  19   10   35 1
  20   11   12 ar
  21   11   36 1
  22   12   13 ar
  23   12   15 1
  24   13   14 ar
  25   13   37 1
  26   14   38 1
  27   15   16 2
  28   15   17 2
  29   15   18 am
  30   18   19 2
  31   19   20 1
  32   19   39 1
  33   20   21 1
  34   20   22 1
  35   21   40 1
  36   21   41 1
  37   21   42 1
  38   22   43 1
  39   22   44 1
  40   22   45 1
  41   23   24 ar
  42   23   28 ar
  43   24   25 ar
  44   24   46 1
  45   25   26 ar
  46   25   47 1
  47   26   27 ar
  48   26   29 1
  49   27   28 ar
  50   27   48 1
  51   28   49 1

#	End of record

