#	Name: ASD01810036
#	Creating user name:	WinNT
#	Creation time:	15. 06. 2019 19:23

#	Modifying user name:	WinNT
#	Modification time:	15. 06. 2019 19:23

#	Program:	/corina/corina34_cracker 3.40 0067  02.08.2006

@<TRIPOS>MOLECULE
ASD01810036
  51   55    0    0    0
SMALL
NO_CHARGES


@<TRIPOS>ATOM
   1 N1            -0.0163     1.3479     0.0095 N.am    
   2 C2             0.0021    -0.0041     0.0020 C.2     
   3 C3            -1.2677    -0.7369    -0.3569 C.3     
   4 C4            -2.5159    -0.1233     0.2729 C.3     
   5 C5            -2.5121     1.3736     0.1210 C.ar    
   6 C6            -1.2660     1.9814     0.0316 C.ar    
   7 C7            -3.6303     2.1624     0.0681 C.ar    
   8 C8            -3.5021     3.5491    -0.0485 C.ar    
   9 C9            -2.2634     4.1500    -0.0990 C.ar    
  10 C10           -1.1108     3.3589    -0.0516 C.ar    
  11 C11            0.9572     2.3080     0.0053 C.ar    
  12 C12            0.3365     3.5841    -0.0418 C.ar    
  13 C13            1.0869     4.7589    -0.0674 C.ar    
  14 C14            2.4684     4.6287    -0.0387 C.ar    
  15 C15            3.0801     3.3801     0.0132 C.ar    
  16 C16            2.3460     2.2022     0.0383 C.ar    
  17 C17           -4.7711     4.3616    -0.1222 C.3     
  18 C18           -4.4753     5.8282     0.1890 C.3     
  19 N19           -3.3512     6.2670    -0.6533 N.3     
  20 C20           -2.1051     5.6438    -0.1972 C.3     
  21 O21            1.0141    -0.6130     0.2766 O.2     
  22 C22           -3.7584    -0.6954    -0.4124 C.3     
  23 C23           -2.5550    -0.4780     1.7607 C.3     
  24 O24            3.2422     5.7475    -0.0624 O.3     
  25 C25            2.5641     7.0042    -0.1162 C.3     
  26 O26            4.4378     3.3118     0.0417 O.3     
  27 C27            5.0208     2.0082     0.0948 C.3     
  28 H28           -1.3824    -0.7284    -1.4408 H       
  29 H29           -1.1806    -1.7714    -0.0248 H       
  30 H30           -4.6111     1.7128     0.1160 H       
  31 H31            0.6135     5.7287    -0.1082 H       
  32 H32            2.8334     1.2392     0.0786 H       
  33 H33           -5.1929     4.2828    -1.1242 H       
  34 H34           -5.4894     3.9763     0.6015 H       
  35 H35           -5.3550     6.4336    -0.0298 H       
  36 H36           -4.2076     5.9327     1.2405 H       
  37 H37           -3.5250     6.0589    -1.6252 H       
  38 H38           -1.8419     6.0423     0.7827 H       
  39 H39           -1.3082     5.8748    -0.9040 H       
  40 H40           -3.7783    -1.7776    -0.2841 H       
  41 H41           -4.6525    -0.2601     0.0340 H       
  42 H42           -3.7297    -0.4560    -1.4754 H       
  43 H43           -1.6656    -0.0832     2.2518 H       
  44 H44           -3.4447    -0.0419     2.2149 H       
  45 H45           -2.5824    -1.5616     1.8753 H       
  46 H46            1.9551     7.0501    -1.0190 H       
  47 H47            1.9238     7.1094     0.7597 H       
  48 H48            3.2961     7.8117    -0.1302 H       
  49 H49            6.1071     2.0965     0.1131 H       
  50 H50            4.6828     1.4954     0.9953 H       
  51 H51            4.7173     1.4384    -0.7834 H       
@<TRIPOS>BOND
   1    1    2 am
   2    1   11 1
   3    1    6 1
   4    2    3 1
   5    2   21 2
   6    3    4 1
   7    3   28 1
   8    3   29 1
   9    4    5 1
  10    4   22 1
  11    4   23 1
  12    5    6 ar
  13    5    7 ar
  14    6   10 ar
  15    7    8 ar
  16    7   30 1
  17    8    9 ar
  18    8   17 1
  19    9   10 ar
  20    9   20 1
  21   10   12 1
  22   11   12 ar
  23   11   16 ar
  24   12   13 ar
  25   13   14 ar
  26   13   31 1
  27   14   15 ar
  28   14   24 1
  29   15   16 ar
  30   15   26 1
  31   16   32 1
  32   17   18 1
  33   17   33 1
  34   17   34 1
  35   18   19 1
  36   18   35 1
  37   18   36 1
  38   19   20 1
  39   19   37 1
  40   20   38 1
  41   20   39 1
  42   22   40 1
  43   22   41 1
  44   22   42 1
  45   23   43 1
  46   23   44 1
  47   23   45 1
  48   24   25 1
  49   25   46 1
  50   25   47 1
  51   25   48 1
  52   26   27 1
  53   27   49 1
  54   27   50 1
  55   27   51 1

#	End of record

