#	Name: ASD02408030
#	Creating user name:	WinNT
#	Creation time:	15. 06. 2019 20:21

#	Modifying user name:	WinNT
#	Modification time:	15. 06. 2019 20:21

#	Program:	/corina/corina34_cracker 3.40 0067  02.08.2006

@<TRIPOS>MOLECULE
ASD02408030
  44   46    0    0    0
SMALL
NO_CHARGES


@<TRIPOS>ATOM
   1 C1            -0.0167     1.3777     0.0096 C.ar    
   2 C2             0.0021    -0.0041     0.0020 C.ar    
   3 C3             1.2781     2.1488     0.0014 C.3     
   4 C4             1.6962     2.4134    -1.4221 C.2     
   5 N5             2.8358     3.0945    -1.6501 N.am    
   6 N6             0.9446     1.9704    -2.3931 N.2     
   7 C7             1.2664     2.1753    -3.6768 C.2     
   8 C8             2.4395     2.8832    -3.9865 C.2     
   9 C9             3.2405     3.3489    -2.9123 C.2     
  10 N10            0.4585     1.6982    -4.6796 N.pl3   
  11 O11            4.2686     3.9685    -3.1243 O.2     
  12 C12           -0.7629     0.9605    -4.3476 C.3     
  13 C13           -1.1869    -0.7119     0.0091 C.ar    
  14 C14           -2.3936    -0.0358     0.0238 C.ar    
  15 C15           -2.4111     1.3464     0.0314 C.ar    
  16 C16           -1.2232     2.0530     0.0190 C.ar    
  17 C17           -1.4629     0.5506    -5.6177 C.ar    
  18 C18           -1.0254    -0.5607    -6.3241 C.ar    
  19 C19           -2.5441     1.2774    -6.0764 C.ar    
  20 C20           -3.1872     0.9016    -7.2416 C.ar    
  21 C21           -2.7500    -0.2021    -7.9500 C.ar    
  22 C22           -1.6719    -0.9353    -7.4927 C.ar    
  23 O23            0.0349    -1.2805    -5.8720 O.3     
  24 C24            0.4301    -2.4120    -6.6502 C.3     
  25 Cl25          -1.1642    -2.4477    -0.0010 Cl      
  26 C26            2.8184     3.1231    -5.3465 C.1     
  27 N27            3.1190     3.3134    -6.4253 N.1     
  28 H28            0.9445    -0.5314    -0.0098 H       
  29 H29            1.1399     3.0965     0.5217 H       
  30 H30            2.0505     1.5672     0.5048 H       
  31 H31            3.3693     3.4046    -0.9017 H       
  32 H32            0.6966     1.8496    -5.6076 H       
  33 H33           -0.5053     0.0717    -3.7716 H       
  34 H34           -1.4228     1.5969    -3.7581 H       
  35 H35           -3.3219    -0.5877     0.0290 H       
  36 H36           -3.3532     1.8744     0.0429 H       
  37 H37           -1.2373     3.1328     0.0253 H       
  38 H38           -2.8878     2.1398    -5.5246 H       
  39 H39           -4.0327     1.4710    -7.5985 H       
  40 H40           -3.2541    -0.4938    -8.8595 H       
  41 H41           -1.3307    -1.7974    -8.0466 H       
  42 H42           -0.3983    -3.1178    -6.7117 H       
  43 H43            0.7042    -2.0852    -7.6533 H       
  44 H44            1.2856    -2.8960    -6.1792 H       
@<TRIPOS>BOND
   1    1    2 ar
   2    1    3 1
   3    1   16 ar
   4    2   13 ar
   5    2   28 1
   6    3    4 1
   7    3   29 1
   8    3   30 1
   9    4    5 1
  10    4    6 2
  11    5    9 am
  12    5   31 1
  13    6    7 1
  14    7    8 2
  15    7   10 1
  16    8    9 1
  17    8   26 1
  18    9   11 2
  19   10   12 1
  20   10   32 1
  21   12   17 1
  22   12   33 1
  23   12   34 1
  24   13   14 ar
  25   13   25 1
  26   14   15 ar
  27   14   35 1
  28   15   16 ar
  29   15   36 1
  30   16   37 1
  31   17   18 ar
  32   17   19 ar
  33   18   23 1
  34   18   22 ar
  35   19   20 ar
  36   19   38 1
  37   20   21 ar
  38   20   39 1
  39   21   22 ar
  40   21   40 1
  41   22   41 1
  42   23   24 1
  43   24   42 1
  44   24   43 1
  45   24   44 1
  46   26   27 3

#	End of record

