#	Name: ASD01880164
#	Creating user name:	WinNT
#	Creation time:	15. 06. 2019 19:40

#	Modifying user name:	WinNT
#	Modification time:	15. 06. 2019 19:40

#	Program:	/corina/corina34_cracker 3.40 0067  02.08.2006

@<TRIPOS>MOLECULE
ASD01880164
  67   70    0    0    0
SMALL
NO_CHARGES


@<TRIPOS>ATOM
   1 C1            -0.0166     1.3755     0.0096 C.ar    
   2 C2             0.0021    -0.0041     0.0020 C.ar    
   3 C3            -1.1898    -0.7263     0.0100 C.ar    
   4 C4            -2.3948    -0.0823     0.0254 C.ar    
   5 C5            -2.4391     1.3063     0.0333 C.ar    
   6 C6            -1.2420     2.0465     0.0308 C.ar    
   7 O7             1.1911    -0.6633    -0.0138 O.3     
   8 C8             1.1411    -2.0914    -0.0209 C.3     
   9 C9             2.5648    -2.6515    -0.0387 C.3     
  10 C10            2.5113    -4.1805    -0.0463 C.3     
  11 C11            3.9349    -4.7406    -0.0640 C.3     
  12 O12            3.8849    -6.1687    -0.0711 O.3     
  13 C13            5.0728    -6.8273    -0.0869 C.ar    
  14 C14            5.0949    -8.2159    -0.0946 C.ar    
  15 C15            6.2985    -8.8876    -0.1111 C.ar    
  16 C16            7.4956    -8.1705    -0.1201 C.ar    
  17 C17            7.4695    -6.7753    -0.1124 C.ar    
  18 C18            6.2622    -6.1104    -0.1012 C.ar    
  19 C19            8.7894    -8.8878    -0.1373 C.2     
  20 N20            8.9607   -10.1933    -0.1461 N.2     
  21 N21           10.2118   -10.4823    -0.1614 N.2     
  22 N22           10.9216    -9.4064    -0.1634 N.2     
  23 N23           10.0233    -8.3250    -0.1530 N.pl3   
  24 C24            1.2746     2.1525     0.0014 C.3     
  25 C25            1.6978     2.4232    -1.4437 C.3     
  26 C26            3.0087     3.2120    -1.4520 C.3     
  27 N27           -3.4429     2.2444     0.0483 N.pl3   
  28 N28           -2.9003     3.4127     0.0492 N.2     
  29 N29           -1.6156     3.3420     0.0399 N.2     
  30 C30           -4.8808     1.9646     0.0607 C.3     
  31 C31           -5.3675     1.8591     1.5074 C.3     
  32 C32           -5.0985     3.1787     2.2335 C.3     
  33 C33           -6.8692     1.5668     1.5203 C.3     
  34 C34           -4.6213     0.7262     2.2151 C.3     
  35 H35           -1.1607    -1.8059     0.0036 H       
  36 H36           -3.3121    -0.6522     0.0312 H       
  37 H37            0.6241    -2.4413     0.8726 H       
  38 H38            0.6057    -2.4318    -0.9073 H       
  39 H39            3.0818    -2.3016    -0.9322 H       
  40 H40            3.1002    -2.3111     0.8477 H       
  41 H41            1.9943    -4.5305     0.8472 H       
  42 H42            1.9759    -4.5209    -0.9326 H       
  43 H43            4.4520    -4.3907    -0.9575 H       
  44 H44            4.4703    -4.4002     0.8223 H       
  45 H45            4.1680    -8.7702    -0.0873 H       
  46 H46            6.3150    -9.9674    -0.1167 H       
  47 H47            8.3941    -6.2172    -0.1193 H       
  48 H48            6.2412    -5.0306    -0.0955 H       
  49 H49           10.2396    -7.3794    -0.1521 H       
  50 H50            1.1320     3.0996     0.5218 H       
  51 H51            2.0496     1.5745     0.5048 H       
  52 H52            1.8404     1.4760    -1.9640 H       
  53 H53            0.9228     3.0011    -1.9471 H       
  54 H54            2.8661     4.1591    -0.9317 H       
  55 H55            3.7838     2.6340    -0.9486 H       
  56 H56            3.3102     3.4049    -2.4816 H       
  57 H57           -5.4124     2.7716    -0.4435 H       
  58 H58           -5.0725     1.0245    -0.4566 H       
  59 H59           -5.6300     3.9857     1.7293 H       
  60 H60           -5.4451     3.1035     3.2641 H       
  61 H61           -4.0286     3.3869     2.2243 H       
  62 H62           -7.0609     0.6267     1.0030 H       
  63 H63           -7.2159     1.4916     2.5509 H       
  64 H64           -7.4008     2.3738     1.0161 H       
  65 H65           -3.5514     0.9345     2.2059 H       
  66 H66           -4.9680     0.6511     3.2458 H       
  67 H67           -4.8130    -0.2139     1.6978 H       
@<TRIPOS>BOND
   1    1    2 ar
   2    1   24 1
   3    1    6 ar
   4    2    3 ar
   5    2    7 1
   6    3    4 ar
   7    3   35 1
   8    4    5 ar
   9    4   36 1
  10    5    6 ar
  11    5   27 1
  12    6   29 1
  13    7    8 1
  14    8    9 1
  15    8   37 1
  16    8   38 1
  17    9   10 1
  18    9   39 1
  19    9   40 1
  20   10   11 1
  21   10   41 1
  22   10   42 1
  23   11   12 1
  24   11   43 1
  25   11   44 1
  26   12   13 1
  27   13   14 ar
  28   13   18 ar
  29   14   15 ar
  30   14   45 1
  31   15   16 ar
  32   15   46 1
  33   16   17 ar
  34   16   19 1
  35   17   18 ar
  36   17   47 1
  37   18   48 1
  38   19   20 2
  39   19   23 1
  40   20   21 1
  41   21   22 2
  42   22   23 1
  43   23   49 1
  44   24   25 1
  45   24   50 1
  46   24   51 1
  47   25   26 1
  48   25   52 1
  49   25   53 1
  50   26   54 1
  51   26   55 1
  52   26   56 1
  53   27   28 1
  54   27   30 1
  55   28   29 2
  56   30   31 1
  57   30   57 1
  58   30   58 1
  59   31   32 1
  60   31   33 1
  61   31   34 1
  62   32   59 1
  63   32   60 1
  64   32   61 1
  65   33   62 1
  66   33   63 1
  67   33   64 1
  68   34   65 1
  69   34   66 1
  70   34   67 1

#	End of record

