#	Name: ASD06170015
#	Creating user name:	WinNT
#	Creation time:	15. 06. 2019 21:05

#	Modifying user name:	WinNT
#	Modification time:	15. 06. 2019 21:05

#	Program:	/corina/corina34_cracker 3.40 0067  02.08.2006

@<TRIPOS>MOLECULE
ASD06170015
  65   70    0    0    0
SMALL
NO_CHARGES


@<TRIPOS>ATOM
   1 N1             1.1274    -0.0321    -1.1707 N.pl3   
   2 N2             1.5456    -1.2542    -1.7050 N.am    
   3 C3             2.8586    -1.4182    -1.4471 C.2     
   4 C4             3.3004    -0.2297    -0.7050 C.2     
   5 C5             2.1800     0.5890    -0.5674 C.2     
   6 C6             4.6520     0.0416    -0.2071 C.2     
   7 O7             4.8863     1.0805     0.3821 O.2     
   8 N8             5.6353    -0.8593    -0.4016 N.am    
   9 C9             2.8639     4.1735     0.3333 C.ar    
  10 C10            2.9331     2.9655    -0.3320 C.ar    
  11 C11            2.1408     1.8999     0.1126 C.ar    
  12 C12            1.3101     2.1123     1.2196 C.ar    
  13 C13            1.3052     3.3538     1.8239 C.ar    
  14 N14            2.0674     4.3301     1.3721 N.ar    
  15 C15            0.7336    -2.1599    -2.3951 C.ar    
  16 C16           -0.4973    -2.5313    -1.8698 C.ar    
  17 C17           -1.2968    -3.4260    -2.5538 C.ar    
  18 C18           -0.8727    -3.9521    -3.7603 C.ar    
  19 C19            0.3524    -3.5847    -4.2859 C.ar    
  20 C20            1.1538    -2.6855    -3.6101 C.ar    
  21 O21            3.5466    -2.3698    -1.7673 O.2     
  22 C22           -0.2340     0.5028    -1.2523 C.3     
  23 C23            6.8933    -0.6516     0.1639 C.ar    
  24 C24            7.2790     0.6331     0.5301 C.ar    
  25 C25            8.5285     0.8278     1.0900 C.ar    
  26 C26            9.3564    -0.2784     1.2660 C.ar    
  27 C27            8.9049    -1.5294     0.8773 C.ar    
  28 N28            7.7044    -1.6802     0.3510 N.ar    
  29 O29           10.5929    -0.1324     1.8122 O.3     
  30 N30           10.8327     0.3835     5.8971 N.ar    
  31 C31            9.6738     0.1464     5.3286 C.ar    
  32 C32            9.5543    -0.0333     3.9565 C.ar    
  33 C33           10.6797     0.0384     3.1542 C.ar    
  34 C34           11.9224     0.2947     3.7770 C.ar    
  35 C35           13.1061     0.3818     3.0298 C.ar    
  36 C36           14.2872     0.6303     3.6585 C.ar    
  37 C37           14.3373     0.8001     5.0451 C.ar    
  38 C38           13.1930     0.7203     5.8061 C.ar    
  39 C39           11.9613     0.4654     5.1824 C.ar    
  40 O40           15.5290     1.0462     5.6487 O.3     
  41 C41           16.6808     1.1170     4.8057 C.3     
  42 H42            5.4682    -1.6521    -0.9350 H       
  43 H43            3.4743     5.0002     0.0009 H       
  44 H44            3.5877     2.8446    -1.1825 H       
  45 H45            0.6826     1.3174     1.5948 H       
  46 H46            0.6680     3.5277     2.6784 H       
  47 H47           -0.8288    -2.1213    -0.9272 H       
  48 H48           -2.2540    -3.7152    -2.1458 H       
  49 H49           -1.4996    -4.6518    -4.2931 H       
  50 H50            0.6810    -3.9980    -5.2280 H       
  51 H51            2.1082    -2.3949    -4.0237 H       
  52 H52           -0.8479    -0.1581    -1.8643 H       
  53 H53           -0.6589     0.5692    -0.2507 H       
  54 H54           -0.2082     1.4950    -1.7026 H       
  55 H55            6.6114     1.4685     0.3788 H       
  56 H56            8.8549     1.8145     1.3836 H       
  57 H57            9.5413    -2.3917     1.0107 H       
  58 H58            8.7888     0.0883     5.9448 H       
  59 H59            8.5869    -0.2274     3.5173 H       
  60 H60           13.0804     0.2518     1.9580 H       
  61 H61           15.1964     0.6966     3.0795 H       
  62 H62           13.2425     0.8526     6.8768 H       
  63 H63           16.8074     0.1689     4.2832 H       
  64 H64           16.5499     1.9181     4.0783 H       
  65 H65           17.5635     1.3181     5.4128 H       
@<TRIPOS>BOND
   1    1    2 1
   2    1    5 1
   3    1   22 1
   4    2    3 am
   5    2   15 1
   6    3    4 1
   7    3   21 2
   8    4    5 2
   9    4    6 1
  10    5   11 1
  11    6    7 2
  12    6    8 am
  13    8   23 1
  14    8   42 1
  15    9   10 ar
  16    9   14 ar
  17    9   43 1
  18   10   11 ar
  19   10   44 1
  20   11   12 ar
  21   12   13 ar
  22   12   45 1
  23   13   14 ar
  24   13   46 1
  25   15   16 ar
  26   15   20 ar
  27   16   17 ar
  28   16   47 1
  29   17   18 ar
  30   17   48 1
  31   18   19 ar
  32   18   49 1
  33   19   20 ar
  34   19   50 1
  35   20   51 1
  36   22   52 1
  37   22   53 1
  38   22   54 1
  39   23   24 ar
  40   23   28 ar
  41   24   25 ar
  42   24   55 1
  43   25   26 ar
  44   25   56 1
  45   26   27 ar
  46   26   29 1
  47   27   28 ar
  48   27   57 1
  49   29   33 1
  50   30   31 ar
  51   30   39 ar
  52   31   32 ar
  53   31   58 1
  54   32   33 ar
  55   32   59 1
  56   33   34 ar
  57   34   35 ar
  58   34   39 ar
  59   35   36 ar
  60   35   60 1
  61   36   37 ar
  62   36   61 1
  63   37   38 ar
  64   37   40 1
  65   38   39 ar
  66   38   62 1
  67   40   41 1
  68   41   63 1
  69   41   64 1
  70   41   65 1

#	End of record

