#	Name: ASD01840531
#	Creating user name:	WinNT
#	Creation time:	15. 06. 2019 19:37

#	Modifying user name:	WinNT
#	Modification time:	15. 06. 2019 19:37

#	Program:	/corina/corina34_cracker 3.40 0067  02.08.2006

@<TRIPOS>MOLECULE
ASD01840531
  48   52    0    0    0
SMALL
NO_CHARGES


@<TRIPOS>ATOM
   1 C1            -2.4064    -0.8634     1.6277 C.3     
   2 C2            -1.1814    -1.1486     0.7976 C.2     
   3 C3            -1.2904    -1.8253    -0.3623 C.2     
   4 N4            -0.1605    -2.0747    -1.1051 N.am    
   5 C5             0.0207    -2.7144    -2.2772 C.2     
   6 O6            -0.8499    -3.2329    -2.9542 O.2     
   7 N7             1.3367    -2.6783    -2.5677 N.am    
   8 N8             1.9803    -1.9894    -1.5311 N.2     
   9 C9             1.0690    -1.6308    -0.6562 C.2     
  10 N10            1.1636    -0.9550     0.5059 N.2     
  11 C11            0.0910    -0.7022     1.2281 C.2     
  12 N12            0.2093    -0.0034     2.4125 N.pl3   
  13 C13            0.3439     1.4596     2.4082 C.3     
  14 C14            1.5892     1.8427     3.2139 C.3     
  15 C15            1.4984     1.2239     4.6107 C.3     
  16 C16            1.4496    -0.3012     4.4927 C.3     
  17 C17            0.1970    -0.7079     3.7018 C.3     
  18 O18            2.6432     1.6058     5.3759 O.3     
  19 C19            2.4610     1.7865     6.7105 C.ar    
  20 C20            3.4930     2.2869     7.4907 C.ar    
  21 C21            3.3064     2.4707     8.8481 C.ar    
  22 C22            2.0937     2.1563     9.4263 C.ar    
  23 C23            1.5853     2.2395    10.8468 C.3     
  24 O24            0.1500     2.1777    10.7576 O.3     
  25 C25           -0.1159     1.4159     9.5657 C.3     
  26 C26            1.0604     1.6560     8.6483 C.ar    
  27 C27            1.2399     1.4760     7.2935 C.ar    
  28 H28           -2.2968     0.1047     2.1165 H       
  29 H29           -3.2859    -0.8481     0.9841 H       
  30 H30           -2.5224    -1.6407     2.3831 H       
  31 H31           -2.2553    -2.1687    -0.7050 H       
  32 H32            1.7611    -3.0599    -3.3521 H       
  33 H33            0.4489     1.8139     1.3827 H       
  34 H34           -0.5386     1.9091     2.8637 H       
  35 H35            2.4792     1.4690     2.7076 H       
  36 H36            1.6475     2.9277     3.2998 H       
  37 H37            0.5952     1.5788     5.1071 H       
  38 H38            2.3409    -0.6547     3.9744 H       
  39 H39            1.4085    -0.7420     5.4888 H       
  40 H40           -0.6971    -0.4317     4.2606 H       
  41 H41            0.2051    -1.7843     3.5301 H       
  42 H42            4.4422     2.5325     7.0379 H       
  43 H43            4.1098     2.8599     9.4559 H       
  44 H44            1.9618     1.3993    11.4303 H       
  45 H45            1.8931     3.1811    11.3014 H       
  46 H46           -0.1937     0.3558     9.8070 H       
  47 H47           -1.0359     1.7632     9.0954 H       
  48 H48            0.4336     1.0902     6.6875 H       
@<TRIPOS>BOND
   1    1    2 1
   2    1   28 1
   3    1   29 1
   4    1   30 1
   5    2   11 1
   6    2    3 2
   7    3    4 1
   8    3   31 1
   9    4    9 1
  10    4    5 am
  11    5    6 2
  12    5    7 am
  13    7    8 1
  14    7   32 1
  15    8    9 2
  16    9   10 1
  17   10   11 2
  18   11   12 1
  19   12   17 1
  20   12   13 1
  21   13   14 1
  22   13   33 1
  23   13   34 1
  24   14   15 1
  25   14   35 1
  26   14   36 1
  27   15   16 1
  28   15   18 1
  29   15   37 1
  30   16   17 1
  31   16   38 1
  32   16   39 1
  33   17   40 1
  34   17   41 1
  35   18   19 1
  36   19   27 ar
  37   19   20 ar
  38   20   21 ar
  39   20   42 1
  40   21   22 ar
  41   21   43 1
  42   22   26 ar
  43   22   23 1
  44   23   24 1
  45   23   44 1
  46   23   45 1
  47   24   25 1
  48   25   26 1
  49   25   46 1
  50   25   47 1
  51   26   27 ar
  52   27   48 1

#	End of record

