#	Name: ASD02039462
#	Creating user name:	WinNT
#	Creation time:	15. 06. 2019 20:18

#	Modifying user name:	WinNT
#	Modification time:	15. 06. 2019 20:18

#	Program:	/corina/corina34_cracker 3.40 0067  02.08.2006

@<TRIPOS>MOLECULE
ASD02039462
  48   51    0    0    0
SMALL
NO_CHARGES


@<TRIPOS>ATOM
   1 C1             0.1323     1.1907     0.0647 C.ar    
   2 C2             0.4139    -0.1572     0.1961 C.ar    
   3 C3             1.2576     2.1912     0.0056 C.3     
   4 N4             1.7447     2.2976    -1.3720 N.am    
   5 C5             1.2832     3.2757    -2.1762 C.2     
   6 C6             0.2178     4.1768    -1.7035 C.2     
   7 C7            -0.4140     5.1350    -2.4408 C.2     
   8 N8            -0.3181     4.2009    -0.4564 N.2     
   9 C9            -1.2326     5.1261    -0.4091 C.2     
  10 N10           -1.3181     5.7261    -1.6248 N.pl3   
  11 O11            1.7462     3.4144    -3.2923 O.2     
  12 C12           -2.2253     6.8178    -1.9875 C.3     
  13 C13            2.7333     1.3408    -1.8753 C.3     
  14 C14           -0.6129    -1.0819     0.2510 C.ar    
  15 C15           -2.2166     0.6955     0.0307 C.ar    
  16 C16           -1.1765     1.6212    -0.0181 C.ar    
  17 C17           -3.6249     1.1524    -0.0583 C.ar    
  18 C18           -4.5152     0.5608    -0.9571 C.ar    
  19 C19           -5.8198     1.0177    -1.0074 C.ar    
  20 N20           -6.2241     1.9986    -0.2205 N.ar    
  21 C21           -5.4128     2.5826     0.6415 C.ar    
  22 C22           -4.0985     2.1835     0.7597 C.ar    
  23 C23           -1.9281    -0.6627     0.1744 C.ar    
  24 F24           -2.9311    -1.5662     0.2272 F       
  25 C25            2.3124     0.6509    -3.1836 C.3     
  26 C26            3.7736     0.7986    -3.6396 C.3     
  27 C27            3.8703     1.9948    -2.6780 C.3     
  28 F28           -6.6912     0.4541    -1.8723 F       
  29 H29            1.4400    -0.4889     0.2556 H       
  30 H30            0.8968     3.1640     0.3396 H       
  31 H31            2.0701     1.8629     0.6539 H       
  32 H32           -0.2283     5.3761    -3.4771 H       
  33 H33           -1.8293     5.3744     0.4562 H       
  34 H34           -1.7411     7.7739    -1.7887 H       
  35 H35           -2.4716     6.7487    -3.0471 H       
  36 H36           -3.1382     6.7430    -1.3967 H       
  37 H37            3.0806     0.6482    -1.1086 H       
  38 H38           -0.3871    -2.1330     0.3537 H       
  39 H39           -1.3937     2.6733    -0.1291 H       
  40 H40           -4.1898    -0.2410    -1.6033 H       
  41 H41           -5.7849     3.3815     1.2658 H       
  42 H42           -3.4412     2.6666     1.4675 H       
  43 H43            1.9992    -0.3846    -3.0500 H       
  44 H44            1.6085     1.2338    -3.7777 H       
  45 H45            4.4066    -0.0421    -3.3557 H       
  46 H46            3.8778     1.0727    -4.6894 H       
  47 H47            3.5924     2.9451    -3.1339 H       
  48 H48            4.8149     2.0443    -2.1363 H       
@<TRIPOS>BOND
   1    1    2 ar
   2    1    3 1
   3    1   16 ar
   4    2   14 ar
   5    2   29 1
   6    3    4 1
   7    3   30 1
   8    3   31 1
   9    4    5 am
  10    4   13 1
  11    5    6 1
  12    5   11 2
  13    6    7 2
  14    6    8 1
  15    7   10 1
  16    7   32 1
  17    8    9 2
  18    9   10 1
  19    9   33 1
  20   10   12 1
  21   12   34 1
  22   12   35 1
  23   12   36 1
  24   13   25 1
  25   13   27 1
  26   13   37 1
  27   14   23 ar
  28   14   38 1
  29   15   16 ar
  30   15   17 1
  31   15   23 ar
  32   16   39 1
  33   17   18 ar
  34   17   22 ar
  35   18   19 ar
  36   18   40 1
  37   19   20 ar
  38   19   28 1
  39   20   21 ar
  40   21   22 ar
  41   21   41 1
  42   22   42 1
  43   23   24 1
  44   25   26 1
  45   25   43 1
  46   25   44 1
  47   26   27 1
  48   26   45 1
  49   26   46 1
  50   27   47 1
  51   27   48 1

#	End of record

