#	Name: ASD02038003
#	Creating user name:	WinNT
#	Creation time:	15. 06. 2019 20:16

#	Modifying user name:	WinNT
#	Modification time:	15. 06. 2019 20:16

#	Program:	/corina/corina34_cracker 3.40 0067  02.08.2006

@<TRIPOS>MOLECULE
ASD02038003
  55   58    0    0    0
SMALL
NO_CHARGES


@<TRIPOS>ATOM
   1 C1            -0.0167     1.3793     0.0096 C.ar    
   2 C2             0.0021    -0.0041     0.0020 C.ar    
   3 C3             1.2098    -0.6789    -0.0131 C.ar    
   4 C4             2.3967     0.0292    -0.0207 C.ar    
   5 C5             2.3773     1.4115    -0.0131 C.ar    
   6 C6             1.1709     2.0863     0.0021 C.ar    
   7 Cl7           -1.4892    -0.8928     0.0121 Cl      
   8 C8             3.6719     2.1830    -0.0208 C.3     
   9 O9             4.0751     2.4381    -1.3921 O.3     
  10 C10            6.8986     4.1384    -3.0393 C.3     
  11 N11            5.6511     3.3928    -2.8234 N.am    
  12 C12            5.2200     3.1224    -1.5754 C.2     
  13 C13            6.6067     5.3340    -3.9516 C.3     
  14 C14            5.9398     4.8389    -5.2370 C.3     
  15 C15            4.6131     4.1568    -4.8954 C.3     
  16 C16            4.8824     2.9479    -3.9938 C.3     
  17 C17            5.6782     6.0264    -6.1656 C.3     
  18 O18            5.1631     5.5525    -7.4114 O.3     
  19 C19            4.8753     6.4872    -8.3560 C.ar    
  20 C20            4.3721     6.0957    -9.5880 C.ar    
  21 C21            5.0795     7.8325    -8.0852 C.ar    
  22 C22            4.7866     8.7825    -9.0433 C.ar    
  23 C23            4.2880     8.3910   -10.2786 C.ar    
  24 C24            4.0796     7.0448   -10.5472 C.ar    
  25 N25            3.9901     9.3515   -11.2530 N.am    
  26 C26            3.1811     9.0480   -12.2845 C.2     
  27 C27            2.5655     7.6798   -12.4032 C.3     
  28 C28            3.5393     6.6228   -11.8888 C.3     
  29 O29            5.8647     3.4961    -0.6156 O.2     
  30 O30            2.9450     9.8868   -13.1282 O.2     
  31 H31           -0.9592     1.9066     0.0170 H       
  32 H32            1.2250    -1.7588    -0.0187 H       
  33 H33            3.3395    -0.4974    -0.0321 H       
  34 H34            1.1564     3.1662     0.0080 H       
  35 H35            3.5331     3.1307     0.4994 H       
  36 H36            4.4442     1.6017     0.4829 H       
  37 H37            7.2822     4.4937    -2.0829 H       
  38 H38            7.6352     3.4891    -3.5124 H       
  39 H39            5.9399     6.0279    -3.4398 H       
  40 H40            7.5401     5.8402    -4.1977 H       
  41 H41            6.5967     4.1261    -5.7356 H       
  42 H42            3.9651     4.8618    -4.3747 H       
  43 H43            4.1276     3.8252    -5.8132 H       
  44 H44            5.4546     2.2015    -4.5446 H       
  45 H45            3.9356     2.5177    -3.6671 H       
  46 H46            4.9526     6.6959    -5.7036 H       
  47 H47            6.6102     6.5644    -6.3388 H       
  48 H48            4.2096     5.0486    -9.7971 H       
  49 H49            5.4675     8.1367    -7.1243 H       
  50 H50            4.9448     9.8297    -8.8319 H       
  51 H51            4.3692    10.2417   -11.1838 H       
  52 H52            1.6499     7.6424   -11.8129 H       
  53 H53            2.3294     7.4784   -13.4481 H       
  54 H54            4.3640     6.5154   -12.5933 H       
  55 H55            3.0207     5.6693   -11.7890 H       
@<TRIPOS>BOND
   1    1    2 ar
   2    1    6 ar
   3    1   31 1
   4    2    3 ar
   5    2    7 1
   6    3    4 ar
   7    3   32 1
   8    4    5 ar
   9    4   33 1
  10    5    6 ar
  11    5    8 1
  12    6   34 1
  13    8    9 1
  14    8   35 1
  15    8   36 1
  16    9   12 1
  17   10   11 1
  18   10   13 1
  19   10   37 1
  20   10   38 1
  21   11   12 am
  22   11   16 1
  23   12   29 2
  24   13   14 1
  25   13   39 1
  26   13   40 1
  27   14   15 1
  28   14   17 1
  29   14   41 1
  30   15   16 1
  31   15   42 1
  32   15   43 1
  33   16   44 1
  34   16   45 1
  35   17   18 1
  36   17   46 1
  37   17   47 1
  38   18   19 1
  39   19   20 ar
  40   19   21 ar
  41   20   24 ar
  42   20   48 1
  43   21   22 ar
  44   21   49 1
  45   22   23 ar
  46   22   50 1
  47   23   24 ar
  48   23   25 1
  49   24   28 1
  50   25   26 am
  51   25   51 1
  52   26   27 1
  53   26   30 2
  54   27   28 1
  55   27   52 1
  56   27   53 1
  57   28   54 1
  58   28   55 1

#	End of record

