#	Name: ASD01900421
#	Creating user name:	WinNT
#	Creation time:	15. 06. 2019 19:51

#	Modifying user name:	WinNT
#	Modification time:	15. 06. 2019 19:51

#	Program:	/corina/corina34_cracker 3.40 0067  02.08.2006

@<TRIPOS>MOLECULE
ASD01900421
  35   38    0    0    0
SMALL
NO_CHARGES


@<TRIPOS>ATOM
   1 O1             0.0834     1.1878    -0.3306 O.3     
   2 C2            -0.0314    -0.1672    -0.3488 C.ar    
   3 C3             0.7664    -0.9112    -1.2177 C.ar    
   4 N4             1.6722    -0.2438    -2.0582 N.am    
   5 C5             1.9810     1.0448    -1.7953 C.2     
   6 C6             1.3819     1.7267    -0.5918 C.3     
   7 C7             0.6616    -2.2917    -1.2469 C.ar    
   8 C8            -0.2360    -2.9328    -0.4134 C.ar    
   9 C9            -1.0324    -2.1947     0.4526 C.ar    
  10 C10           -0.9290    -0.8091     0.4846 C.ar    
  11 O11            2.7378     1.6505    -2.5246 O.2     
  12 C12            2.2731    -0.9343    -3.2020 C.3     
  13 N13           -1.9396    -2.8467     1.2940 N.pl3   
  14 C14           -2.5725    -4.9913     2.5254 C.ar    
  15 C15           -1.8864    -6.2030     2.7338 C.ar    
  16 C16           -2.5089    -7.2170     3.4609 C.ar    
  17 C17           -3.7803    -6.9858     3.9479 C.ar    
  18 C18           -4.3978    -5.7659     3.7042 C.ar    
  19 N19           -3.7974    -4.8208     3.0172 N.ar    
  20 N20           -0.5736    -4.8206     1.5281 N.2     
  21 N21           -0.6677    -6.0846     2.1196 N.pl3   
  22 C22           -1.6731    -4.1461     1.7366 C.2     
  23 H23            1.2986     2.7963    -0.7848 H       
  24 H24            2.0233     1.5638     0.2743 H       
  25 H25            1.2800    -2.8668    -1.9201 H       
  26 H26           -0.3183    -4.0094    -0.4360 H       
  27 H27           -1.5484    -0.2352     1.1578 H       
  28 H28            1.6430    -0.7978    -4.0808 H       
  29 H29            3.2628    -0.5212    -3.3967 H       
  30 H30            2.3607    -1.9977    -2.9793 H       
  31 H31           -2.7537    -2.3976     1.5705 H       
  32 H32           -2.0101    -8.1584     3.6383 H       
  33 H33           -4.2918    -7.7495     4.5148 H       
  34 H34           -5.3923    -5.5907     4.0871 H       
  35 H35            0.0203    -6.7680     2.0985 H       
@<TRIPOS>BOND
   1    1    2 1
   2    1    6 1
   3    2    3 ar
   4    2   10 ar
   5    3    4 1
   6    3    7 ar
   7    4    5 am
   8    4   12 1
   9    5    6 1
  10    5   11 2
  11    6   23 1
  12    6   24 1
  13    7    8 ar
  14    7   25 1
  15    8    9 ar
  16    8   26 1
  17    9   10 ar
  18    9   13 1
  19   10   27 1
  20   12   28 1
  21   12   29 1
  22   12   30 1
  23   13   22 1
  24   13   31 1
  25   14   15 ar
  26   14   19 ar
  27   14   22 1
  28   15   16 ar
  29   15   21 1
  30   16   17 ar
  31   16   32 1
  32   17   18 ar
  33   17   33 1
  34   18   19 ar
  35   18   34 1
  36   20   21 1
  37   20   22 2
  38   21   35 1

#	End of record

