#	Name: ASD01917444
#	Creating user name:	WinNT
#	Creation time:	15. 06. 2019 20:09

#	Modifying user name:	WinNT
#	Modification time:	15. 06. 2019 20:09

#	Program:	/corina/corina34_cracker 3.40 0067  02.08.2006

@<TRIPOS>MOLECULE
ASD01917444
  49   52    0    0    0
SMALL
NO_CHARGES


@<TRIPOS>ATOM
   1 S1            -0.0218     1.7567     0.0117 S.3     
   2 C2             0.0021    -0.0041     0.0020 C.2     
   3 N3             1.2427    -0.4104    -0.0120 N.2     
   4 C4             2.1514     0.5291    -0.0156 C.2     
   5 C5             1.6885     1.7890    -0.0045 C.2     
   6 C6            -1.1843    -0.8763     0.0091 C.2     
   7 O7            -1.0505    -2.0851     0.0017 O.2     
   8 N8            -2.4186    -0.3351     0.0237 N.am    
   9 C9             3.6257     0.2174    -0.0309 C.3     
  10 C10           -3.5989    -1.2028     0.0308 C.3     
  11 C11           -3.6562    -2.1307    -1.1954 C.3     
  12 C12           -4.7776    -3.1521    -0.9957 C.3     
  13 C13           -6.1064    -2.4396    -0.7364 C.3     
  14 C14           -5.9436    -1.4985     0.4700 C.3     
  15 C15           -5.1951    -2.2836     1.5718 C.3     
  16 C16           -3.6739    -2.0957     1.2908 C.3     
  17 C17           -4.9287    -0.4036     0.0472 C.3     
  18 C18           -8.1999    -1.7872     1.3434 C.2     
  19 C19           -9.4903    -1.2382     1.8121 C.ar    
  20 C20          -10.5048    -2.0979     2.2361 C.ar    
  21 C21          -11.7081    -1.5781     2.6729 C.ar    
  22 C22          -11.9074    -0.2067     2.6900 C.ar    
  23 C23          -10.9048     0.6487     2.2707 C.ar    
  24 C24           -9.6967     0.1417     1.8378 C.ar    
  25 O25           -8.0210    -2.9893     1.3267 O.2     
  26 N26           -7.2221    -0.9546     0.9345 N.am    
  27 F27          -12.6920    -2.4079     3.0835 F       
  28 H28            2.2983     2.6804    -0.0062 H       
  29 H29           -2.5253     0.6290     0.0296 H       
  30 H30            3.9717     0.1480    -1.0622 H       
  31 H31            4.1700     1.0102     0.4823 H       
  32 H32            3.8018    -0.7313     0.4761 H       
  33 H33           -3.8553    -1.5408    -2.0901 H       
  34 H34           -2.7044    -2.6506    -1.3041 H       
  35 H35           -4.8674    -3.7686    -1.8902 H       
  36 H36           -4.5378    -3.7892    -0.1444 H       
  37 H37           -6.3870    -1.8600    -1.6159 H       
  38 H38           -6.8798    -3.1771    -0.5220 H       
  39 H39           -5.4459    -1.8823     2.5538 H       
  40 H40           -5.4553    -3.3408     1.5210 H       
  41 H41           -3.2061    -3.0605     1.0947 H       
  42 H42           -3.1808    -1.6032     2.1289 H       
  43 H43           -4.8878     0.4085     0.7731 H       
  44 H44           -5.1700    -0.0258    -0.9464 H       
  45 H45          -10.3497    -3.1666     2.2225 H       
  46 H46          -12.8496     0.1957     3.0318 H       
  47 H47          -11.0663     1.7165     2.2864 H       
  48 H48           -8.9135     0.8117     1.5150 H       
  49 H49           -7.3649     0.0048     0.9478 H       
@<TRIPOS>BOND
   1    1    2 1
   2    1    5 1
   3    2    3 2
   4    2    6 1
   5    3    4 1
   6    4    5 2
   7    4    9 1
   8    5   28 1
   9    6    7 2
  10    6    8 am
  11    8   10 1
  12    8   29 1
  13    9   30 1
  14    9   31 1
  15    9   32 1
  16   10   11 1
  17   10   16 1
  18   10   17 1
  19   11   12 1
  20   11   33 1
  21   11   34 1
  22   12   13 1
  23   12   35 1
  24   12   36 1
  25   13   14 1
  26   13   37 1
  27   13   38 1
  28   14   15 1
  29   14   17 1
  30   14   26 1
  31   15   16 1
  32   15   39 1
  33   15   40 1
  34   16   41 1
  35   16   42 1
  36   17   43 1
  37   17   44 1
  38   18   19 1
  39   18   25 2
  40   18   26 am
  41   19   20 ar
  42   19   24 ar
  43   20   21 ar
  44   20   45 1
  45   21   22 ar
  46   21   27 1
  47   22   23 ar
  48   22   46 1
  49   23   24 ar
  50   23   47 1
  51   24   48 1
  52   26   49 1

#	End of record

