#	Name: ASD01209203
#	Creating user name:	WinNT
#	Creation time:	15. 06. 2019 19:11

#	Modifying user name:	WinNT
#	Modification time:	15. 06. 2019 19:11

#	Program:	/corina/corina34_cracker 3.40 0067  02.08.2006

@<TRIPOS>MOLECULE
ASD01209203
  68   70    0    0    0
SMALL
NO_CHARGES


@<TRIPOS>ATOM
   1 O1             2.1059     0.3343    -0.6927 O.3     
   2 O2             3.6291     1.6232     1.0192 O.3     
   3 C3             3.0731     6.9537    -8.3758 C.ar    
   4 C4             2.3645     6.9204    -9.5678 C.ar    
   5 C5             1.2011     6.1708    -9.6673 C.ar    
   6 C6             0.7430     5.4515    -8.5761 C.ar    
   7 C7             1.4528     5.4822    -7.3749 C.ar    
   8 C8             2.6250     6.2331    -7.2809 C.ar    
   9 O9             0.5101     6.1423   -10.8372 O.3     
  10 C10            0.9672     4.7169    -6.2072 C.2     
  11 N11            1.6542     4.7479    -5.0481 N.am    
  12 O12           -0.0519     4.0596    -6.2924 O.2     
  13 C13            1.1979     4.0288    -3.9509 C.2     
  14 P14            2.9231     1.6956    -0.4259 P.3     
  15 O15            3.9565     1.8637    -1.4720 O.2     
  16 C16            1.7762     3.1118    -0.4716 C.3     
  17 N17            1.7810     3.9902    -2.7936 N.2     
  18 S18           -0.2185     3.0716    -3.9276 S.3     
  19 C19            0.0865     2.6422    -2.2465 C.2     
  20 C20            1.2081     3.2536    -1.8602 C.2     
  21 C21            2.7384    -0.9404    -0.8226 C.3     
  22 C22            1.6764    -2.0140    -1.0689 C.3     
  23 C23            4.6592     0.6848     1.3360 C.3     
  24 C24            5.1058     0.8877     2.7853 C.3     
  25 O25            4.2118     7.6899    -8.2837 O.3     
  26 C26            4.8216     7.7831    -6.9947 C.3     
  27 C27            5.7177     6.5644    -6.7651 C.3     
  28 C28            5.6649     9.0575    -6.9204 C.3     
  29 C29            1.1001     6.8083   -11.9555 C.3     
  30 C30            0.5885     6.1788   -13.2541 C.3     
  31 C31            1.1761     6.9349   -14.4479 C.3     
  32 N32            0.7792     8.3470   -14.3779 N.3     
  33 C33            1.2994     8.9851   -13.1619 C.3     
  34 C34            0.7155     8.2902   -11.9298 C.3     
  35 H35            2.7190     7.4798   -10.4209 H       
  36 H36           -0.1628     4.8686    -8.6542 H       
  37 H37            3.1773     6.2595    -6.3533 H       
  38 H38            2.4673     5.2723    -4.9801 H       
  39 H39            0.9652     2.9457     0.2375 H       
  40 H40            2.3122     4.0223    -0.2037 H       
  41 H41           -0.5288     1.9995    -1.6343 H       
  42 H42            3.4332    -0.9174    -1.6621 H       
  43 H43            3.2826    -1.1710     0.0932 H       
  44 H44            1.1322    -1.7834    -1.9847 H       
  45 H45            2.1589    -2.9864    -1.1680 H       
  46 H46            0.9816    -2.0370    -0.2294 H       
  47 H47            4.2780    -0.3288     1.2119 H       
  48 H48            5.5079     0.8380     0.6695 H       
  49 H49            5.4870     1.9013     2.9094 H       
  50 H50            4.2571     0.7345     3.4519 H       
  51 H51            5.8915     0.1719     3.0269 H       
  52 H52            4.0475     7.8145    -6.2280 H       
  53 H53            6.4918     6.5330    -7.5319 H       
  54 H54            6.1828     6.6355    -5.7819 H       
  55 H55            5.1169     5.6565    -6.8181 H       
  56 H56            5.0265     9.9257    -7.0840 H       
  57 H57            6.1301     9.1286    -5.9372 H       
  58 H58            6.4390     9.0261    -7.6872 H       
  59 H59            2.1846     6.7115   -11.9063 H       
  60 H60            0.8962     5.1340   -13.2980 H       
  61 H61           -0.4994     6.2399   -13.2843 H       
  62 H62            2.2634     6.8617   -14.4247 H       
  63 H63            0.8025     6.4982   -15.3740 H       
  64 H64            1.0744     8.8469   -15.2031 H       
  65 H65            2.3861     8.9023   -13.1447 H       
  66 H66            1.0154    10.0374   -13.1540 H       
  67 H67           -0.3704     8.3846   -11.9391 H       
  68 H68            1.1139     8.7539   -11.0274 H       
@<TRIPOS>BOND
   1    1   21 1
   2    1   14 1
   3    2   23 1
   4    2   14 1
   5    3    4 ar
   6    3   25 1
   7    3    8 ar
   8    4    5 ar
   9    4   35 1
  10    5    6 ar
  11    5    9 1
  12    6    7 ar
  13    6   36 1
  14    7    8 ar
  15    7   10 1
  16    8   37 1
  17    9   29 1
  18   10   11 am
  19   10   12 2
  20   11   13 1
  21   11   38 1
  22   13   17 2
  23   13   18 1
  24   14   15 2
  25   14   16 1
  26   16   20 1
  27   16   39 1
  28   16   40 1
  29   17   20 1
  30   18   19 1
  31   19   20 2
  32   19   41 1
  33   21   22 1
  34   21   42 1
  35   21   43 1
  36   22   44 1
  37   22   45 1
  38   22   46 1
  39   23   24 1
  40   23   47 1
  41   23   48 1
  42   24   49 1
  43   24   50 1
  44   24   51 1
  45   25   26 1
  46   26   27 1
  47   26   28 1
  48   26   52 1
  49   27   53 1
  50   27   54 1
  51   27   55 1
  52   28   56 1
  53   28   57 1
  54   28   58 1
  55   29   30 1
  56   29   34 1
  57   29   59 1
  58   30   31 1
  59   30   60 1
  60   30   61 1
  61   31   32 1
  62   31   62 1
  63   31   63 1
  64   32   33 1
  65   32   64 1
  66   33   34 1
  67   33   65 1
  68   33   66 1
  69   34   67 1
  70   34   68 1

#	End of record

