#	Name: ASD01914403
#	Creating user name:	WinNT
#	Creation time:	15. 06. 2019 20:03

#	Modifying user name:	WinNT
#	Modification time:	15. 06. 2019 20:03

#	Program:	/corina/corina34_cracker 3.40 0067  02.08.2006

@<TRIPOS>MOLECULE
ASD01914403
  60   65    0    0    0
SMALL
NO_CHARGES


@<TRIPOS>ATOM
   1 C1            -0.0167     1.3769     0.0096 C.ar    
   2 C2             0.0021    -0.0041     0.0020 C.ar    
   3 C3             1.2140    -0.6809    -0.0132 C.ar    
   4 C4             2.4051     0.0320    -0.0208 C.ar    
   5 C5             2.3825     1.4129    -0.0132 C.ar    
   6 C6             1.1726     2.0864     0.0021 C.ar    
   7 N7             1.2350    -2.0834    -0.0205 N.pl3   
   8 C8             0.5464    -2.9100     0.8264 C.2     
   9 C9             0.8560    -4.1831     0.4670 C.2     
  10 N10            1.7120    -4.1229    -0.5732 N.2     
  11 C11            1.9379    -2.8743    -0.8731 C.2     
  12 C12            0.3436    -5.4202     1.1060 C.ar    
  13 C13            0.7454    -6.6684     0.6343 C.ar    
  14 C14            0.2663    -7.8164     1.2316 C.ar    
  15 C15           -0.6129    -7.7293     2.2987 C.ar    
  16 C16           -1.0150    -6.4905     2.7710 C.ar    
  17 C17           -0.5364    -5.3373     2.1834 C.ar    
  18 C18            2.8398    -2.3875    -1.9780 C.3     
  19 O19            0.8611    -2.5115    -3.2581 O.2     
  20 C20            2.0441    -2.2445    -3.2497 C.2     
  21 N21            2.6471    -1.8198    -4.3778 N.am    
  22 F22            1.1524     3.4372     0.0100 F       
  23 F23           -1.0798    -8.8558     2.8803 F       
  24 C24            1.8892    -1.6732    -5.6297 C.3     
  25 C25            2.1502    -0.2733    -6.1956 C.3     
  26 N26            3.5985    -0.0601    -6.3177 N.3     
  27 C27            4.2553    -0.0980    -5.0043 C.3     
  28 C28            4.0792    -1.4849    -4.3881 C.3     
  29 C29            3.8721     1.1302    -6.9765 C.2     
  30 C30            5.2051     1.6728    -7.2803 C.ar    
  31 C31            4.9951     2.8873    -7.9509 C.ar    
  32 O32            3.6617     3.0665    -8.0460 O.3     
  33 N33            2.9954     1.9736    -7.4465 N.2     
  34 C34            6.5048     1.2272    -7.0383 C.ar    
  35 C35            7.5689     1.9766    -7.4561 C.ar    
  36 C36            7.3662     3.1783    -8.1192 C.ar    
  37 C37            6.0899     3.6354    -8.3676 C.ar    
  38 H38           -0.9594     1.9038     0.0169 H       
  39 H39           -0.9256    -0.5571     0.0083 H       
  40 H40            3.3489    -0.4929    -0.0323 H       
  41 H41            3.3090     1.9679    -0.0191 H       
  42 H42           -0.1145    -2.6085     1.6256 H       
  43 H43            1.4304    -6.7372    -0.1978 H       
  44 H44            0.5769    -8.7841     0.8664 H       
  45 H45           -1.7007    -6.4273     3.6029 H       
  46 H46           -0.8502    -4.3720     2.5525 H       
  47 H47            3.2622    -1.4210    -1.7030 H       
  48 H48            3.6454    -3.1054    -2.1322 H       
  49 H49            2.2179    -2.4252    -6.3470 H       
  50 H50            0.8246    -1.7947    -5.4296 H       
  51 H51            1.6855    -0.1855    -7.1777 H       
  52 H52            1.7277     0.4748    -5.5248 H       
  53 H53            5.3173     0.1169    -5.1224 H       
  54 H54            3.8035     0.6476    -4.3501 H       
  55 H55            4.4640    -1.4840    -3.3682 H       
  56 H56            4.6172    -2.2216    -4.9847 H       
  57 H57            6.6697     0.2930    -6.5221 H       
  58 H58            8.5747     1.6309    -7.2684 H       
  59 H59            8.2160     3.7607    -8.4435 H       
  60 H60            5.9410     4.5721    -8.8841 H       
@<TRIPOS>BOND
   1    1    2 ar
   2    1    6 ar
   3    1   38 1
   4    2    3 ar
   5    2   39 1
   6    3    4 ar
   7    3    7 1
   8    4    5 ar
   9    4   40 1
  10    5    6 ar
  11    5   41 1
  12    6   22 1
  13    7    8 1
  14    7   11 1
  15    8    9 2
  16    8   42 1
  17    9   10 1
  18    9   12 1
  19   10   11 2
  20   11   18 1
  21   12   13 ar
  22   12   17 ar
  23   13   14 ar
  24   13   43 1
  25   14   15 ar
  26   14   44 1
  27   15   16 ar
  28   15   23 1
  29   16   17 ar
  30   16   45 1
  31   17   46 1
  32   18   20 1
  33   18   47 1
  34   18   48 1
  35   19   20 2
  36   20   21 am
  37   21   24 1
  38   21   28 1
  39   24   25 1
  40   24   49 1
  41   24   50 1
  42   25   26 1
  43   25   51 1
  44   25   52 1
  45   26   27 1
  46   26   29 1
  47   27   28 1
  48   27   53 1
  49   27   54 1
  50   28   55 1
  51   28   56 1
  52   29   30 1
  53   29   33 2
  54   30   31 ar
  55   30   34 ar
  56   31   32 1
  57   31   37 ar
  58   32   33 1
  59   34   35 ar
  60   34   57 1
  61   35   36 ar
  62   35   58 1
  63   36   37 ar
  64   36   59 1
  65   37   60 1

#	End of record

