#	Name: ASD01140667
#	Creating user name:	WinNT
#	Creation time:	15. 06. 2019 19:01

#	Modifying user name:	WinNT
#	Modification time:	15. 06. 2019 19:01

#	Program:	/corina/corina34_cracker 3.40 0067  02.08.2006

@<TRIPOS>MOLECULE
ASD01140667
  64   70    0    0    0
SMALL
NO_CHARGES


@<TRIPOS>ATOM
   1 C1            -0.0173     1.4248     0.0099 C.3     
   2 O2             0.0021    -0.0041     0.0020 O.3     
   3 C3             0.6060    -0.6073    -1.0561 C.ar    
   4 C4             1.1734     0.1618    -2.0633 C.ar    
   5 C5             1.7879    -0.4477    -3.1367 C.ar    
   6 C6             1.8465    -1.8362    -3.2248 C.ar    
   7 C7             1.2752    -2.6137    -2.2174 C.ar    
   8 C8             0.6605    -1.9867    -1.1271 C.ar    
   9 C9             1.2911    -4.0885    -2.2538 C.2     
  10 N10            1.4392    -4.8930    -1.2224 N.2     
  11 N11            1.4015    -6.1172    -1.6162 N.2     
  12 C12            1.2292    -6.1674    -2.9124 C.2     
  13 C13            1.1300    -7.4123    -3.7558 C.3     
  14 O14           -0.2366    -7.8203    -3.8439 O.3     
  15 C15           -0.5016    -8.9345    -4.5738 C.ar    
  16 C16            0.5146    -9.6172    -5.1805 C.ar    
  17 C17            0.2595   -10.7611    -5.9322 C.ar    
  18 C18           -1.0084   -11.2327    -6.0854 C.ar    
  19 C19           -2.0819   -10.5591    -5.4772 C.ar    
  20 C20           -3.4026   -11.0184    -5.6141 C.ar    
  21 C21           -4.4173   -10.3406    -5.0105 C.ar    
  22 C22           -4.1665    -9.1956    -4.2576 C.ar    
  23 C23           -2.8992    -8.7216    -4.1038 C.ar    
  24 C24           -1.8267    -9.3980    -4.7060 C.ar    
  25 N25            1.1566    -4.8896    -3.3520 N.pl3   
  26 C26            0.9732    -4.4115    -4.7268 C.3     
  27 C27            2.1430    -3.5067    -5.0365 C.2     
  28 C28            3.0359    -3.6482    -6.0458 C.2     
  29 N29            3.9220    -2.6337    -5.9495 N.2     
  30 C30            3.6061    -1.8829    -4.9323 C.2     
  31 N31            2.4893    -2.3908    -4.3371 N.pl3   
  32 C32            3.0397    -4.7213    -7.0686 C.2     
  33 N33            2.1801    -5.7030    -7.1681 N.2     
  34 O34            2.4622    -6.4093    -8.1129 O.3     
  35 C35            3.5538    -5.9405    -8.7257 C.2     
  36 N36            3.9290    -4.8661    -8.0775 N.2     
  37 C37            4.2235    -6.5335    -9.9385 C.3     
  38 C38            4.6724    -7.9623    -9.6257 C.3     
  39 C39            3.2366    -6.5533   -11.1074 C.3     
  40 H40            1.0053     1.8021     0.0021 H       
  41 H41           -0.5445     1.7859    -0.8732 H       
  42 H42           -0.5275     1.7763     0.9067 H       
  43 H43            1.1331     1.2396    -2.0060 H       
  44 H44            2.2273     0.1571    -3.9162 H       
  45 H45            0.2231    -2.5833    -0.3402 H       
  46 H46            1.5126    -7.2055    -4.7553 H       
  47 H47            1.7182    -8.2083    -3.2991 H       
  48 H48            1.5299    -9.2644    -5.0758 H       
  49 H49            1.0806   -11.2824    -6.4017 H       
  50 H50           -1.1889   -12.1210    -6.6725 H       
  51 H51           -3.6118   -11.9042    -6.1954 H       
  52 H52           -5.4317   -10.6955    -5.1172 H       
  53 H53           -4.9894    -8.6760    -3.7892 H       
  54 H54           -2.7197    -7.8325    -3.5176 H       
  55 H55            0.9628    -5.2557    -5.4162 H       
  56 H56            0.0401    -3.8537    -4.8056 H       
  57 H57            4.1423    -1.0016    -4.6125 H       
  58 H58            5.0912    -5.9303   -10.2057 H       
  59 H59            3.8047    -8.5655    -9.3584 H       
  60 H60            5.1568    -8.3912   -10.5029 H       
  61 H61            5.3755    -7.9482    -8.7929 H       
  62 H62            3.7209    -6.9823   -11.9847 H       
  63 H63            2.3689    -7.1565   -10.8402 H       
  64 H64            2.9167    -5.5354   -11.3303 H       
@<TRIPOS>BOND
   1    1    2 1
   2    1   40 1
   3    1   41 1
   4    1   42 1
   5    2    3 1
   6    3    8 ar
   7    3    4 ar
   8    4    5 ar
   9    4   43 1
  10    5    6 ar
  11    5   44 1
  12    6   31 1
  13    6    7 ar
  14    7    8 ar
  15    7    9 1
  16    8   45 1
  17    9   25 1
  18    9   10 2
  19   10   11 1
  20   11   12 2
  21   12   13 1
  22   12   25 1
  23   13   14 1
  24   13   46 1
  25   13   47 1
  26   14   15 1
  27   15   24 ar
  28   15   16 ar
  29   16   17 ar
  30   16   48 1
  31   17   18 ar
  32   17   49 1
  33   18   19 ar
  34   18   50 1
  35   19   24 ar
  36   19   20 ar
  37   20   21 ar
  38   20   51 1
  39   21   22 ar
  40   21   52 1
  41   22   23 ar
  42   22   53 1
  43   23   24 ar
  44   23   54 1
  45   25   26 1
  46   26   27 1
  47   26   55 1
  48   26   56 1
  49   27   31 1
  50   27   28 2
  51   28   29 1
  52   28   32 1
  53   29   30 2
  54   30   31 1
  55   30   57 1
  56   32   36 1
  57   32   33 2
  58   33   34 1
  59   34   35 1
  60   35   36 2
  61   35   37 1
  62   37   38 1
  63   37   39 1
  64   37   58 1
  65   38   59 1
  66   38   60 1
  67   38   61 1
  68   39   62 1
  69   39   63 1
  70   39   64 1

#	End of record

