#	Name: ASD01410055
#	Creating user name:	WinNT
#	Creation time:	15. 06. 2019 19:16

#	Modifying user name:	WinNT
#	Modification time:	15. 06. 2019 19:16

#	Program:	/corina/corina34_cracker 3.40 0067  02.08.2006

@<TRIPOS>MOLECULE
ASD01410055
  45   46    0    0    0
SMALL
NO_CHARGES


@<TRIPOS>ATOM
   1 C1             0.3984     1.0948    -0.0888 C.ar    
   2 C2             0.1443    -0.2568    -0.0385 C.ar    
   3 C3            -1.1778    -0.7177    -0.0019 C.ar    
   4 C4            -2.2356     0.2093    -0.0171 C.ar    
   5 C5            -1.9557     1.5695    -0.0682 C.ar    
   6 C6            -0.6475     2.0057    -0.0979 C.ar    
   7 N7            -3.5502    -0.2316     0.0181 N.pl3   
   8 C8            -4.6450     0.7366     0.1198 C.3     
   9 C9            -5.9623     0.0049     0.1394 C.2     
  10 N10           -7.1158     0.6962     0.2288 N.am    
  11 C11           -8.3355     0.0317     0.1275 C.ar    
  12 C12           -8.4194    -1.1714    -0.5597 C.ar    
  13 C13           -9.6295    -1.8286    -0.6590 C.ar    
  14 C14          -10.7673    -1.2949    -0.0761 C.ar    
  15 C15          -10.7035    -0.1015     0.6102 C.ar    
  16 C16           -9.4849     0.5722     0.7246 C.ar    
  17 C17           -9.4093     1.8487     1.4575 C.2     
  18 O18          -10.4939     2.3198     2.1039 O.3     
  19 O19           -8.3691     2.4763     1.4789 O.2     
  20 O20           -5.9845    -1.2059     0.0749 O.2     
  21 C21           -1.4573    -2.1564     0.0513 C.2     
  22 C22            1.8218     1.5883    -0.1280 C.3     
  23 C23           -0.3277    -3.1479    -0.0575 C.3     
  24 O24           -2.5978    -2.5483     0.1829 O.2     
  25 C25           -0.3526     3.4825    -0.1531 C.3     
  26 H26            0.9630    -0.9611    -0.0275 H       
  27 H27           -2.7636     2.2862    -0.0804 H       
  28 H28           -3.7446    -1.1809    -0.0245 H       
  29 H29           -4.5359     1.3132     1.0383 H       
  30 H30           -4.6158     1.4094    -0.7373 H       
  31 H31           -7.0965     1.6566     0.3636 H       
  32 H32           -7.5371    -1.5938    -1.0176 H       
  33 H33           -9.6896    -2.7644    -1.1947 H       
  34 H34          -11.7092    -1.8166    -0.1602 H       
  35 H35          -11.5936     0.3104     1.0625 H       
  36 H36          -10.3958     3.1610     2.5706 H       
  37 H37            2.1489     1.6721    -1.1644 H       
  38 H38            1.8810     2.5652     0.3517 H       
  39 H39            2.4651     0.8845     0.4002 H       
  40 H40            0.6155    -2.6133    -0.1696 H       
  41 H41           -0.2935    -3.7600     0.8438 H       
  42 H42           -0.4881    -3.7877    -0.9253 H       
  43 H43           -0.2702     3.8748     0.8605 H       
  44 H44            0.5856     3.6461    -0.6834 H       
  45 H45           -1.1598     3.9949    -0.6765 H       
@<TRIPOS>BOND
   1    1    2 ar
   2    1   22 1
   3    1    6 ar
   4    2    3 ar
   5    2   26 1
   6    3    4 ar
   7    3   21 1
   8    4    5 ar
   9    4    7 1
  10    5    6 ar
  11    5   27 1
  12    6   25 1
  13    7    8 1
  14    7   28 1
  15    8    9 1
  16    8   29 1
  17    8   30 1
  18    9   10 am
  19    9   20 2
  20   10   11 1
  21   10   31 1
  22   11   12 ar
  23   11   16 ar
  24   12   13 ar
  25   12   32 1
  26   13   14 ar
  27   13   33 1
  28   14   15 ar
  29   14   34 1
  30   15   16 ar
  31   15   35 1
  32   16   17 1
  33   17   18 1
  34   17   19 2
  35   18   36 1
  36   21   23 1
  37   21   24 2
  38   22   37 1
  39   22   38 1
  40   22   39 1
  41   23   40 1
  42   23   41 1
  43   23   42 1
  44   25   43 1
  45   25   44 1
  46   25   45 1

#	End of record

