#	Name: ASD09890120
#	Creating user name:	WinNT
#	Creation time:	15. 06. 2019 21:24

#	Modifying user name:	WinNT
#	Modification time:	15. 06. 2019 21:24

#	Program:	/corina/corina34_cracker 3.40 0067  02.08.2006

@<TRIPOS>MOLECULE
ASD09890120
  37   39    0    0    0
SMALL
NO_CHARGES


@<TRIPOS>ATOM
   1 C1             0.0088     1.3846     0.0545 C.ar    
   2 C2             0.0394    -0.0113     0.0747 C.ar    
   3 C3             2.4561     0.0436     0.0880 C.ar    
   4 C4             2.4156     1.4192     0.0687 C.ar    
   5 C5             1.1953     2.0933     0.0515 C.ar    
   6 C6            -0.9932    -1.0505     0.0834 C.2     
   7 C7            -0.3595    -2.2338     0.1043 C.2     
   8 N8             0.9944    -2.0380     0.1097 N.pl3   
   9 C9             1.2724    -0.6875     0.0920 C.ar    
  10 C10           -1.0391    -3.5788     0.1195 C.3     
  11 N11            1.1718     3.4937     0.0307 N.am    
  12 C12            2.2143     4.1776    -0.4810 C.2     
  13 C13            2.1545     5.6471    -0.5799 C.ar    
  14 C14            2.1190     8.3692    -0.7878 C.ar    
  15 N15            3.2132     7.7014    -1.0980 N.ar    
  16 C16            3.2727     6.3816    -1.0111 C.ar    
  17 C17            0.9815     6.3363    -0.2519 C.ar    
  18 C18            0.9768     7.7157    -0.3615 C.ar    
  19 N19            4.4412     5.7224    -1.3457 N.pl3   
  20 O20            3.2044     3.5824    -0.8611 O.2     
  21 C21           -1.3099     2.1137     0.0296 C.3     
  22 H22            3.4069    -0.4684     0.1011 H       
  23 H23            3.3376     1.9816     0.0658 H       
  24 H24           -2.0618    -0.8943     0.0750 H       
  25 H25            1.6596    -2.7438     0.1244 H       
  26 H26           -1.1967    -3.9178    -0.9044 H       
  27 H27           -0.4117    -4.2969     0.6475 H       
  28 H28           -2.0004    -3.4945     0.6263 H       
  29 H29            0.4052     3.9712     0.3846 H       
  30 H30            2.1132     9.4458    -0.8729 H       
  31 H31            0.1014     5.8045     0.0785 H       
  32 H32            0.0894     8.2782    -0.1115 H       
  33 H33            5.2371     6.2296    -1.5699 H       
  34 H34            4.4650     4.7527    -1.3563 H       
  35 H35           -1.6390     2.3042     1.0511 H       
  36 H36           -1.1914     3.0609    -0.4965 H       
  37 H37           -2.0529     1.5034    -0.4837 H       
@<TRIPOS>BOND
   1    1    2 ar
   2    1    5 ar
   3    1   21 1
   4    2    9 ar
   5    2    6 1
   6    3    4 ar
   7    3    9 ar
   8    3   22 1
   9    4    5 ar
  10    4   23 1
  11    5   11 1
  12    6    7 2
  13    6   24 1
  14    7    8 1
  15    7   10 1
  16    8    9 1
  17    8   25 1
  18   10   26 1
  19   10   27 1
  20   10   28 1
  21   11   12 am
  22   11   29 1
  23   12   13 1
  24   12   20 2
  25   13   17 ar
  26   13   16 ar
  27   14   15 ar
  28   14   18 ar
  29   14   30 1
  30   15   16 ar
  31   16   19 1
  32   17   18 ar
  33   17   31 1
  34   18   32 1
  35   19   33 1
  36   19   34 1
  37   21   35 1
  38   21   36 1
  39   21   37 1

#	End of record

