#	Name: ASD03331950
#	Creating user name:	WinNT
#	Creation time:	15. 06. 2019 20:40

#	Modifying user name:	WinNT
#	Modification time:	15. 06. 2019 20:40

#	Program:	/corina/corina34_cracker 3.40 0067  02.08.2006

@<TRIPOS>MOLECULE
ASD03331950
  54   56    0    0    0
SMALL
NO_CHARGES


@<TRIPOS>ATOM
   1 C1             0.2786     1.4942     0.1344 C.3     
   2 N2             0.2005     0.0276     0.0803 N.3     
   3 C3             0.6016    -0.4781    -1.2449 C.3     
   4 C4             1.9175     0.1601    -1.6084 C.2     
   5 N5             2.4257     1.2514    -0.9781 N.pl3   
   6 C6             1.7474     1.9369     0.1257 C.3     
   7 C7             2.8038    -0.1978    -2.5708 C.2     
   8 N8             3.8397     0.6706    -2.5180 N.2     
   9 C9             3.6177     1.5438    -1.5611 C.2     
  10 C10            4.5147     2.6581    -1.1828 C.ar    
  11 C11            5.5445     3.0490    -2.0381 C.ar    
  12 C12            6.3789     4.0907    -1.6786 C.ar    
  13 C13            6.1929     4.7446    -0.4715 C.ar    
  14 C14            5.1726     4.3599     0.3797 C.ar    
  15 C15            4.3298     3.3256     0.0285 C.ar    
  16 C16            2.6638    -1.3288    -3.5050 C.2     
  17 O17            1.6803    -2.0423    -3.4530 O.2     
  18 N18            3.6257    -1.5725    -4.4171 N.am    
  19 C19            3.4865    -2.6970    -5.3458 C.3     
  20 C20            2.6559    -2.2604    -6.5543 C.3     
  21 C21            4.8512    -3.1391    -5.8075 C.2     
  22 N22            5.0530    -4.4163    -6.1874 N.am    
  23 O23            5.7679    -2.3455    -5.8372 O.2     
  24 C24            6.4010    -4.8729    -6.5348 C.3     
  25 C25            3.2904    -1.0210    -7.1884 C.3     
  26 C26            2.6145    -3.3940    -7.5810 C.3     
  27 C27            1.2322    -1.9297    -6.1020 C.3     
  28 F28            7.3773     4.4714    -2.5053 F       
  29 H29           -0.2323     1.9165    -0.7309 H       
  30 H30           -0.2015     1.8492     1.0463 H       
  31 H31            0.7566    -0.3913     0.8106 H       
  32 H32            0.7157    -1.5615    -1.2068 H       
  33 H33           -0.1536    -0.2124    -1.9847 H       
  34 H34            1.8056     3.0155    -0.0201 H       
  35 H35            2.2184     1.6671     1.0710 H       
  36 H36            5.6899     2.5388    -2.9789 H       
  37 H37            6.8474     5.5576    -0.1937 H       
  38 H38            5.0326     4.8734     1.3194 H       
  39 H39            3.5338     3.0268     0.6945 H       
  40 H40            4.4101    -1.0035    -4.4586 H       
  41 H41            2.9875    -3.5248    -4.8419 H       
  42 H42            4.3058    -5.0333    -6.2308 H       
  43 H43            6.7788    -4.2863    -7.3722 H       
  44 H44            7.0601    -4.7464    -5.6758 H       
  45 H45            6.3671    -5.9258    -6.8147 H       
  46 H46            4.3047    -1.2566    -7.5106 H       
  47 H47            2.6987    -0.7100    -8.0494 H       
  48 H48            3.3199    -0.2134    -6.4570 H       
  49 H49            2.2584    -4.3058    -7.1014 H       
  50 H50            1.9402    -3.1238    -8.3936 H       
  51 H51            3.6154    -3.5601    -7.9794 H       
  52 H52            1.2617    -1.1221    -5.3706 H       
  53 H53            0.6404    -1.6187    -6.9630 H       
  54 H54            0.7801    -2.8127    -5.6503 H       
@<TRIPOS>BOND
   1    1    2 1
   2    1    6 1
   3    1   29 1
   4    1   30 1
   5    2    3 1
   6    2   31 1
   7    3    4 1
   8    3   32 1
   9    3   33 1
  10    4    5 1
  11    4    7 2
  12    5    6 1
  13    5    9 1
  14    6   34 1
  15    6   35 1
  16    7    8 1
  17    7   16 1
  18    8    9 2
  19    9   10 1
  20   10   11 ar
  21   10   15 ar
  22   11   12 ar
  23   11   36 1
  24   12   13 ar
  25   12   28 1
  26   13   14 ar
  27   13   37 1
  28   14   15 ar
  29   14   38 1
  30   15   39 1
  31   16   17 2
  32   16   18 am
  33   18   19 1
  34   18   40 1
  35   19   20 1
  36   19   21 1
  37   19   41 1
  38   20   25 1
  39   20   26 1
  40   20   27 1
  41   21   22 am
  42   21   23 2
  43   22   24 1
  44   22   42 1
  45   24   43 1
  46   24   44 1
  47   24   45 1
  48   25   46 1
  49   25   47 1
  50   25   48 1
  51   26   49 1
  52   26   50 1
  53   26   51 1
  54   27   52 1
  55   27   53 1
  56   27   54 1

#	End of record

