#	Name: ASD04560167
#	Creating user name:	WinNT
#	Creation time:	15. 06. 2019 20:49

#	Modifying user name:	WinNT
#	Modification time:	15. 06. 2019 20:49

#	Program:	/corina/corina34_cracker 3.40 0067  02.08.2006

@<TRIPOS>MOLECULE
ASD04560167
  45   47    0    0    0
SMALL
NO_CHARGES


@<TRIPOS>ATOM
   1 C1            -0.2489     1.4734    -0.1532 C.ar    
   2 C2            -0.2312     0.1052    -0.0693 C.ar    
   3 C3             0.9817    -0.5796    -0.0910 C.ar    
   4 C4             2.1797     0.1231    -0.1976 C.ar    
   5 C5             2.1682     1.4914    -0.2814 C.ar    
   6 C6             0.9521     2.1816    -0.2608 C.ar    
   7 C7             0.9364     3.6533    -0.3508 C.2     
   8 O8             1.9817     4.2682    -0.4431 O.2     
   9 N9            -0.2364     4.3172    -0.3308 N.am    
  10 C10           -0.2480     5.7183    -0.2943 C.ar    
  11 C11            0.7444     6.4039     0.3908 C.ar    
  12 C12           -1.2601     7.8100    -0.9122 C.ar    
  13 C13           -1.2530     6.4252    -0.9507 C.ar    
  14 S14            1.0005    -2.3382     0.0172 S.3     
  15 C15            0.7317     7.7854     0.4260 C.ar    
  16 C16           -0.2704     8.4882    -0.2216 C.ar    
  17 C17            2.7698    -2.7324    -0.0520 C.3     
  18 C18            2.9554    -4.2256     0.0308 C.ar    
  19 C19            2.8843    -5.0031    -1.1237 C.ar    
  20 C20            3.2018    -4.8250     1.2492 C.ar    
  21 C21            3.0575    -6.3838    -1.0398 C.ar    
  22 C22            3.2980    -6.9731     0.1841 C.ar    
  23 C23            3.3728    -6.1957     1.3266 C.ar    
  24 B24            2.6097    -4.3265    -2.5135 Du      
  25 O25            3.0325    -4.9644    -3.7096 O.3     
  26 O26            1.9386    -3.0766    -2.5745 O.3     
  27 F27           -0.2790     9.8387    -0.1841 F       
  28 O28           -2.2246     5.7575    -1.6281 O.3     
  29 H29           -1.1898     2.0035    -0.1409 H       
  30 H30           -1.1584    -0.4422     0.0142 H       
  31 H31            3.1185    -0.4105    -0.2138 H       
  32 H32            3.0974     2.0358    -0.3633 H       
  33 H33           -1.0724     3.8254    -0.3417 H       
  34 H34            1.5268     5.8580     0.8970 H       
  35 H35           -2.0381     8.3604    -1.4203 H       
  36 H36            1.5048     8.3179     0.9601 H       
  37 H37            3.1873    -2.3658    -0.9898 H       
  38 H38            3.2812    -2.2557     0.7843 H       
  39 H39            3.2615    -4.2230     2.1438 H       
  40 H40            3.0030    -6.9911    -1.9312 H       
  41 H41            3.4323    -8.0427     0.2503 H       
  42 H42            3.5613    -6.6612     2.2827 H       
  43 H43            2.8194    -4.4724    -4.5143 H       
  44 H44            1.8154    -2.7397    -3.4725 H       
  45 H45           -2.0112     5.5872    -2.5558 H       
@<TRIPOS>BOND
   1    1    2 ar
   2    1    6 ar
   3    1   29 1
   4    2    3 ar
   5    2   30 1
   6    3    4 ar
   7    3   14 1
   8    4    5 ar
   9    4   31 1
  10    5    6 ar
  11    5   32 1
  12    6    7 1
  13    7    8 2
  14    7    9 am
  15    9   10 1
  16    9   33 1
  17   10   11 ar
  18   10   13 ar
  19   11   15 ar
  20   11   34 1
  21   12   13 ar
  22   12   16 ar
  23   12   35 1
  24   13   28 1
  25   14   17 1
  26   15   16 ar
  27   15   36 1
  28   16   27 1
  29   17   18 1
  30   17   37 1
  31   17   38 1
  32   18   19 ar
  33   18   20 ar
  34   19   24 1
  35   19   21 ar
  36   20   23 ar
  37   20   39 1
  38   21   22 ar
  39   21   40 1
  40   22   23 ar
  41   22   41 1
  42   23   42 1
  43   24   25 1
  44   24   26 1
  45   25   43 1
  46   26   44 1
  47   28   45 1

#	End of record

