#	Name: ASD02198381
#	Creating user name:	WinNT
#	Creation time:	15. 06. 2019 20:19

#	Modifying user name:	WinNT
#	Modification time:	15. 06. 2019 20:19

#	Program:	/corina/corina34_cracker 3.40 0067  02.08.2006

@<TRIPOS>MOLECULE
ASD02198381
  29   31    0    0    0
SMALL
NO_CHARGES


@<TRIPOS>ATOM
   1 C1            -0.1415     1.6113     0.3872 C.2     
   2 C2            -0.2045     0.2779     0.3737 C.2     
   3 C3             1.1354     2.1354     0.2762 C.2     
   4 C4             2.1080     1.2290     0.1727 C.2     
   5 S5             1.4158    -0.3873     0.2135 S.3     
   6 S6             3.8247     1.5948     0.0190 S.o2    
   7 N7             4.4483     1.6733     1.5511 N.am    
   8 C8             4.3770     0.5623     2.3905 C.ar    
   9 C9             4.1649     0.7302     3.7767 C.ar    
  10 C10            4.0963    -0.4161     4.6056 C.ar    
  11 C11            4.2397    -1.6936     4.0411 C.ar    
  12 C12            4.4438    -1.8252     2.7009 C.ar    
  13 C13            4.5073    -0.7083     1.8733 C.ar    
  14 N14            4.0299     1.9470     4.3106 N.ar    
  15 C15            3.8332     2.1092     5.5965 C.ar    
  16 C16            3.7558     1.0251     6.4683 C.ar    
  17 C17            3.8847    -0.2465     5.9874 C.ar    
  18 O18            4.4222     0.4638    -0.5999 O.2     
  19 O19            3.9087     2.9085    -0.5162 O.2     
  20 Cl20          -1.6625    -0.6565     0.4962 Cl      
  21 H21           -1.0198     2.2338     0.4735 H       
  22 H22            1.3289     3.1979     0.2733 H       
  23 H23            4.8631     2.4922     1.8646 H       
  24 H24            4.1886    -2.5710     4.6689 H       
  25 H25            4.5536    -2.8109     2.2736 H       
  26 H26            4.6697    -0.8385     0.8135 H       
  27 H27            3.7288     3.1094     5.9904 H       
  28 H28            3.5936     1.1903     7.5233 H       
  29 H29            3.8270    -1.0984     6.6487 H       
@<TRIPOS>BOND
   1    1    2 2
   2    1    3 1
   3    1   21 1
   4    2   20 1
   5    2    5 1
   6    3    4 2
   7    3   22 1
   8    4    5 1
   9    4    6 1
  10    6    7 am
  11    6   18 2
  12    6   19 2
  13    7    8 1
  14    7   23 1
  15    8    9 ar
  16    8   13 ar
  17    9   10 ar
  18    9   14 ar
  19   10   11 ar
  20   10   17 ar
  21   11   12 ar
  22   11   24 1
  23   12   13 ar
  24   12   25 1
  25   13   26 1
  26   14   15 ar
  27   15   16 ar
  28   15   27 1
  29   16   17 ar
  30   16   28 1
  31   17   29 1

#	End of record

