#	Name: ASD05792006
#	Creating user name:	WinNT
#	Creation time:	15. 06. 2019 21:03

#	Modifying user name:	WinNT
#	Modification time:	15. 06. 2019 21:03

#	Program:	/corina/corina34_cracker 3.40 0067  02.08.2006

@<TRIPOS>MOLECULE
ASD05792006
 106  110    0    0    0
SMALL
NO_CHARGES


@<TRIPOS>ATOM
   1 C1             0.1318     2.0210    -0.1619 C.3     
   2 C2            -0.0995     0.5189    -0.3357 C.3     
   3 C3             0.3349    -0.2150     0.9363 C.3     
   4 C4             1.7777     0.1561     1.2355 C.2     
   5 C5             2.1335     1.6126     1.2757 C.3     
   6 C6             1.6280     2.2960     0.0021 C.3     
   7 C7             2.6296    -0.8042     1.4454 C.2     
   8 C8             4.0805    -0.5604     1.7422 C.3     
   9 C9             4.2389     0.8206     2.3879 C.3     
  10 C10            3.6226     1.8634     1.4451 C.3     
  11 C11            5.7145     1.1468     2.5318 C.3     
  12 C12            5.8147     2.5359     3.2172 C.3     
  13 C13            5.3402     3.5653     2.2091 C.3     
  14 C14            3.8522     3.2869     1.9451 C.3     
  15 C15            6.5008     0.2623     3.5056 C.3     
  16 C16            7.7188     1.1516     3.8767 C.3     
  17 C17            7.2805     2.6170     3.6316 C.3     
  18 H18            3.7375     0.8439     3.3555 H       
  19 O19           -1.4869     0.2753    -0.5760 O.3     
  20 C20            7.4235     3.4351     4.9166 C.3     
  21 C21            8.8905     3.4497     5.3512 C.3     
  22 H22            6.1969     1.1561     1.5544 H       
  23 O23            6.6273     2.8466     5.9470 O.3     
  24 H24            4.0998     1.7695     0.4696 H       
  25 H25            7.8748     3.0604     2.8327 H       
  26 C26            1.4181     2.2455     2.4710 C.3     
  27 C27            4.9168     2.5700     4.4555 C.3     
  28 C28            6.9522     4.8685     4.6638 C.3     
  29 C29            9.0335     4.2678     6.6362 C.3     
  30 C30           10.4783     4.2823     7.0643 C.2     
  31 C31           11.2411     5.3744     7.3038 C.2     
  32 N32           12.4617     4.9110     7.6595 N.pl3   
  33 N33           12.4281     3.6246     7.6335 N.2     
  34 N34           11.2576     3.2182     7.2879 N.2     
  35 C35           13.6221     5.7324     8.0129 C.3     
  36 C36           14.1379     5.3196     9.3930 C.3     
  37 O37           15.2698     6.1208     9.7377 O.3     
  38 C38           15.8313     5.8143    11.0155 C.3     
  39 C39           17.0301     6.7280    11.2782 C.3     
  40 O40           16.5845     8.0822    11.3761 O.3     
  41 C41           17.6320     9.0225    11.6221 C.3     
  42 C42           17.0426    10.4318    11.7075 C.3     
  43 O43           16.1811    10.5198    12.8442 O.3     
  44 C44           15.5756    11.8026    13.0167 C.3     
  45 C45           14.6797    11.7810    14.2568 C.3     
  46 O46           15.4833    11.5826    15.4216 O.3     
  47 C47           14.7398    11.5465    16.6414 C.3     
  48 C48           15.6966    11.3306    17.8157 C.3     
  49 C49           14.9126    11.2925    19.1021 C.2     
  50 O50           15.5482    11.1120    20.2704 O.3     
  51 O51           13.7117    11.4245    19.0818 O.2     
  52 H52           -0.2400     2.5492    -1.0399 H       
  53 H53           -0.4003     2.3700     0.7230 H       
  54 H54            0.4848     0.1568    -1.1816 H       
  55 H55           -0.3015     0.0852     1.7688 H       
  56 H56            0.2570    -1.2915     0.7837 H       
  57 H57            2.1666     1.9025    -0.8600 H       
  58 H58            1.7942     3.3707     0.0756 H       
  59 H59            2.2765    -1.8241     1.4045 H       
  60 H60            4.4458    -1.3263     2.4264 H       
  61 H61            4.6527    -0.5966     0.8152 H       
  62 H62            5.4638     4.5687     2.6166 H       
  63 H63            5.9066     3.4670     1.2830 H       
  64 H64            3.4867     3.9896     1.1963 H       
  65 H65            3.2939     3.4330     2.8698 H       
  66 H66            5.9043     0.0369     4.3896 H       
  67 H67            6.8279    -0.6548     3.0156 H       
  68 H68            7.9801     1.0097     4.9253 H       
  69 H69            8.5697     0.9045     3.2419 H       
  70 H70           -1.7072    -0.6586    -0.6960 H       
  71 H71            9.2263     2.4285     5.5313 H       
  72 H72            9.4978     3.8986     4.5652 H       
  73 H73            6.8709     1.9354     6.1603 H       
  74 H74            1.8372     1.8501     3.3962 H       
  75 H75            1.5527     3.3268     2.4440 H       
  76 H76            0.3548     2.0104     2.4241 H       
  77 H77            5.2355     1.7987     5.1568 H       
  78 H78            4.9918     3.5475     4.9319 H       
  79 H79            3.8835     2.3879     4.1602 H       
  80 H80            5.9071     4.8581     4.3542 H       
  81 H81            7.0541     5.4513     5.5792 H       
  82 H82            7.5595     5.3174     3.8778 H       
  83 H83            8.6977     5.2890     6.4561 H       
  84 H84            8.4262     3.8189     7.4222 H       
  85 H85           10.9370     6.4077     7.2261 H       
  86 H86           14.4090     5.5874     7.2727 H       
  87 H87           13.3313     6.7827     8.0330 H       
  88 H88           13.3510     5.4646    10.1332 H       
  89 H89           14.4287     4.2693     9.3729 H       
  90 H90           15.0796     5.9696    11.7894 H       
  91 H91           16.1573     4.7743    11.0291 H       
  92 H92           17.5121     6.4358    12.2112 H       
  93 H93           17.7421     6.6382    10.4578 H       
  94 H94           18.1265     8.7779    12.5621 H       
  95 H95           18.3565     8.9803    10.8087 H       
  96 H96           17.8497    11.1578    11.8062 H       
  97 H97           16.4728    10.6428    10.8025 H       
  98 H98           16.3522    12.5570    13.1426 H       
  99 H99           14.9754    12.0420    12.1389 H       
 100 H100          14.1495    12.7299    14.3385 H       
 101 H101          13.9587    10.9682    14.1700 H       
 102 H102          14.2109    12.4905    16.7726 H       
 103 H103          14.0201    10.7288    16.6042 H       
 104 H104          16.2256    10.3866    17.6845 H       
 105 H105          16.4164    12.1483    17.8529 H       
 106 H106          15.0029    11.0947    21.0688 H       
@<TRIPOS>BOND
   1    1    2 1
   2    1    6 1
   3    1   52 1
   4    1   53 1
   5    2    3 1
   6    2   19 1
   7    2   54 1
   8    3    4 1
   9    3   55 1
  10    3   56 1
  11    4    5 1
  12    4    7 2
  13    5    6 1
  14    5   10 1
  15    5   26 1
  16    6   57 1
  17    6   58 1
  18    7    8 1
  19    7   59 1
  20    8    9 1
  21    8   60 1
  22    8   61 1
  23    9   10 1
  24    9   18 1
  25    9   11 1
  26   10   24 1
  27   10   14 1
  28   11   15 1
  29   11   22 1
  30   11   12 1
  31   12   13 1
  32   12   27 1
  33   12   17 1
  34   13   14 1
  35   13   62 1
  36   13   63 1
  37   14   64 1
  38   14   65 1
  39   15   16 1
  40   15   66 1
  41   15   67 1
  42   16   17 1
  43   16   68 1
  44   16   69 1
  45   17   20 1
  46   17   25 1
  47   19   70 1
  48   20   21 1
  49   20   23 1
  50   20   28 1
  51   21   29 1
  52   21   71 1
  53   21   72 1
  54   23   73 1
  55   26   74 1
  56   26   75 1
  57   26   76 1
  58   27   77 1
  59   27   78 1
  60   27   79 1
  61   28   80 1
  62   28   81 1
  63   28   82 1
  64   29   30 1
  65   29   83 1
  66   29   84 1
  67   30   31 2
  68   30   34 1
  69   31   32 1
  70   31   85 1
  71   32   33 1
  72   32   35 1
  73   33   34 2
  74   35   36 1
  75   35   86 1
  76   35   87 1
  77   36   37 1
  78   36   88 1
  79   36   89 1
  80   37   38 1
  81   38   39 1
  82   38   90 1
  83   38   91 1
  84   39   40 1
  85   39   92 1
  86   39   93 1
  87   40   41 1
  88   41   42 1
  89   41   94 1
  90   41   95 1
  91   42   43 1
  92   42   96 1
  93   42   97 1
  94   43   44 1
  95   44   45 1
  96   44   98 1
  97   44   99 1
  98   45   46 1
  99   45  100 1
 100   45  101 1
 101   46   47 1
 102   47   48 1
 103   47  102 1
 104   47  103 1
 105   48   49 1
 106   48  104 1
 107   48  105 1
 108   49   50 1
 109   49   51 2
 110   50  106 1

#	End of record

