#	Name: ASD05250013
#	Creating user name:	WinNT
#	Creation time:	15. 06. 2019 20:58

#	Modifying user name:	WinNT
#	Modification time:	15. 06. 2019 20:58

#	Program:	/corina/corina34_cracker 3.40 0067  02.08.2006

@<TRIPOS>MOLECULE
ASD05250013
  32   33    0    0    0
SMALL
NO_CHARGES


@<TRIPOS>ATOM
   1 O1            -0.0163     1.3530     0.0095 O.3     
   2 C2             0.0021    -0.0041     0.0020 C.ar    
   3 C3             0.0230    -0.7034     1.2050 C.ar    
   4 C4             0.0413    -2.0791     1.2065 C.ar    
   5 C5             0.0389    -2.7789    -0.0041 C.ar    
   6 C6             0.0178    -2.0720    -1.2167 C.ar    
   7 C7            -0.0058    -0.6885    -1.2049 C.ar    
   8 O8             0.0158    -2.7430    -2.3959 O.3     
   9 C9             0.0589    -4.2530    -0.0069 C.2     
  10 O10            0.0568    -4.8602    -1.0630 O.2     
  11 C11            0.0814    -4.9862     1.2576 C.2     
  12 C12            0.0997    -6.3375     1.2550 C.2     
  13 C13            0.1223    -7.0743     2.5259 C.ar    
  14 C14            0.1248    -6.3789     3.7405 C.ar    
  15 C15            0.1455    -7.0724     4.9308 C.ar    
  16 C16            0.1639    -8.4607     4.9293 C.ar    
  17 C17            0.1615    -9.1612     3.7230 C.ar    
  18 C18            0.1355    -8.4747     2.5257 C.ar    
  19 O19            0.1801   -10.5210     3.7266 O.3     
  20 O20            0.1847    -9.1387     6.1059 O.3     
  21 H21            0.8616     1.7583     0.0033 H       
  22 H22            0.0252    -0.1643     2.1408 H       
  23 H23            0.0578    -2.6183     2.1421 H       
  24 H24           -0.0225    -0.1410    -2.1357 H       
  25 H25           -0.8681    -2.9495    -2.7294 H       
  26 H26            0.0833    -4.4479     2.1939 H       
  27 H27            0.0978    -6.8758     0.3187 H       
  28 H28            0.1109    -5.2990     3.7447 H       
  29 H29            0.1478    -6.5347     5.8674 H       
  30 H30            0.1333    -9.0160     1.5912 H       
  31 H31           -0.6978   -10.9263     3.7363 H       
  32 H32           -0.6925    -9.3468     6.4555 H       
@<TRIPOS>BOND
   1    1    2 1
   2    1   21 1
   3    2    3 ar
   4    2    7 ar
   5    3    4 ar
   6    3   22 1
   7    4    5 ar
   8    4   23 1
   9    5    6 ar
  10    5    9 1
  11    6    7 ar
  12    6    8 1
  13    7   24 1
  14    8   25 1
  15    9   10 2
  16    9   11 1
  17   11   12 2
  18   11   26 1
  19   12   13 1
  20   12   27 1
  21   13   14 ar
  22   13   18 ar
  23   14   15 ar
  24   14   28 1
  25   15   16 ar
  26   15   29 1
  27   16   17 ar
  28   16   20 1
  29   17   18 ar
  30   17   19 1
  31   18   30 1
  32   19   31 1
  33   20   32 1

#	End of record

