#	Name: ASD09116156
#	Creating user name:	WinNT
#	Creation time:	15. 06. 2019 21:20

#	Modifying user name:	WinNT
#	Modification time:	15. 06. 2019 21:20

#	Program:	/corina/corina34_cracker 3.40 0067  02.08.2006

@<TRIPOS>MOLECULE
ASD09116156
  77   84    0    0    0
SMALL
NO_CHARGES


@<TRIPOS>ATOM
   1 N1            -0.1162     1.7103     0.5073 N.2     
   2 C2            -0.1330     0.2610     0.7732 C.3     
   3 C3             1.1400     2.0623     0.4619 C.2     
   4 N4             1.9808     1.0274     0.6649 N.2     
   5 C5             1.3384    -0.0944     0.8611 C.2     
   6 N6             1.5629     3.3557     0.2308 N.pl3   
   7 C7             2.9257     3.6713     0.3069 C.ar    
   8 C8             3.4524     4.6713    -0.4989 C.ar    
   9 C9             3.7483     2.9872     1.1927 C.ar    
  10 C10            5.0927     3.2988     1.2675 C.ar    
  11 C11            5.6207     4.2971     0.4556 C.ar    
  12 C12            4.7964     4.9830    -0.4250 C.ar    
  13 N13            1.8767    -1.3216     1.0943 N.pl3   
  14 C14           -0.8294    -0.0322     2.0771 C.ar    
  15 C15           -1.4533     0.9922     2.7566 C.ar    
  16 N16           -0.8358    -1.2679     2.5460 N.ar    
  17 C17           -1.4288    -1.5770     3.6785 C.ar    
  18 C18           -2.0736    -0.6061     4.4266 C.ar    
  19 C19           -2.0985     0.7086     3.9703 C.ar    
  20 C20           -1.5807    -2.9032     4.4288 C.3     
  21 C21           -3.0953    -3.2551     4.2852 C.3     
  22 C22           -3.8140    -2.1684     5.1205 C.3     
  23 C23           -2.6502    -1.2830     5.6692 C.3     
  24 C24           -1.5522    -2.3831     5.9129 C.3     
  25 C25           -2.7763     1.7710     4.7407 C.2     
  26 N26            6.9833     4.6140     0.5310 N.3     
  27 C27            7.6446     4.4053    -0.7634 C.3     
  28 C28            9.1519     4.6200    -0.6083 C.3     
  29 C29            9.4107     6.0429    -0.1054 C.3     
  30 C30            8.6716     6.2499     1.2196 C.3     
  31 C31            7.1783     5.9879     1.0114 C.3     
  32 F32            5.8935     2.6343     2.1291 F       
  33 N33           10.8522     6.2359     0.1012 N.3     
  34 C34           -2.2349     2.9623     5.0674 C.2     
  35 C35           -3.0631     3.7925     5.7921 C.2     
  36 C36           -4.2735     3.2919     6.0600 C.2     
  37 S37           -4.4173     1.6817     5.3676 S.3     
  38 C38           11.5909     6.0989    -1.1674 C.3     
  39 C39           12.3821     7.4067    -1.3794 C.3     
  40 C40           12.4954     7.9833     0.0564 C.3     
  41 C41           11.1321     7.5730     0.6668 C.3     
  42 H42           -0.6123    -0.2747    -0.0461 H       
  43 H43            0.9164     4.0462     0.0158 H       
  44 H44            2.8113     5.2058    -1.1843 H       
  45 H45            3.3375     2.2124     1.8230 H       
  46 H46            5.2062     5.7582    -1.0555 H       
  47 H47            2.8400    -1.4302     1.1283 H       
  48 H48            1.2972    -2.0882     1.2266 H       
  49 H49           -1.4453     1.9973     2.3614 H       
  50 H50           -0.8760    -3.6909     4.1624 H       
  51 H51           -3.4030    -3.2000     3.2410 H       
  52 H52           -3.2976    -4.2457     4.6923 H       
  53 H53           -4.4783    -1.5782     4.4892 H       
  54 H54           -4.3689    -2.6222     5.9416 H       
  55 H55           -2.8958    -0.6280     6.5052 H       
  56 H56           -1.8761    -3.1421     6.6249 H       
  57 H57           -0.5876    -1.9537     6.1837 H       
  58 H58            7.4561     3.3884    -1.1077 H       
  59 H59            7.2498     5.1141    -1.4914 H       
  60 H60            9.5497     3.9024     0.1093 H       
  61 H61            9.6405     4.4803    -1.5725 H       
  62 H62            9.0478     6.7608    -0.8409 H       
  63 H63            9.0619     5.5579     1.9659 H       
  64 H64            8.8172     7.2747     1.5612 H       
  65 H65            6.7857     6.6893     0.2752 H       
  66 H66            6.6512     6.1205     1.9562 H       
  67 H67           -1.2314     3.2435     4.7839 H       
  68 H68           -2.7567     4.7749     6.1197 H       
  69 H69           -5.0477     3.8010     6.6148 H       
  70 H70           12.2784     5.2552    -1.1070 H       
  71 H71           10.8910     5.9514    -1.9899 H       
  72 H72           13.3700     7.1973    -1.7897 H       
  73 H73           11.8316     8.0895    -2.0266 H       
  74 H74           13.3207     7.5217     0.5985 H       
  75 H75           12.6027     9.0678     0.0343 H       
  76 H76           10.3562     8.2796     0.3721 H       
  77 H77           11.2038     7.5181     1.7530 H       
@<TRIPOS>BOND
   1    1    2 1
   2    1    3 2
   3    2   14 1
   4    2    5 1
   5    2   42 1
   6    3    4 1
   7    3    6 1
   8    4    5 2
   9    5   13 1
  10    6    7 1
  11    6   43 1
  12    7    8 ar
  13    7    9 ar
  14    8   12 ar
  15    8   44 1
  16    9   10 ar
  17    9   45 1
  18   10   11 ar
  19   10   32 1
  20   11   12 ar
  21   11   26 1
  22   12   46 1
  23   13   47 1
  24   13   48 1
  25   14   15 ar
  26   14   16 ar
  27   15   19 ar
  28   15   49 1
  29   16   17 ar
  30   17   18 ar
  31   17   20 1
  32   18   19 ar
  33   18   23 1
  34   19   25 1
  35   20   21 1
  36   20   24 1
  37   20   50 1
  38   21   22 1
  39   21   51 1
  40   21   52 1
  41   22   23 1
  42   22   53 1
  43   22   54 1
  44   23   24 1
  45   23   55 1
  46   24   56 1
  47   24   57 1
  48   25   34 2
  49   25   37 1
  50   26   27 1
  51   26   31 1
  52   27   28 1
  53   27   58 1
  54   27   59 1
  55   28   29 1
  56   28   60 1
  57   28   61 1
  58   29   30 1
  59   29   33 1
  60   29   62 1
  61   30   31 1
  62   30   63 1
  63   30   64 1
  64   31   65 1
  65   31   66 1
  66   33   38 1
  67   33   41 1
  68   34   35 1
  69   34   67 1
  70   35   36 2
  71   35   68 1
  72   36   37 1
  73   36   69 1
  74   38   39 1
  75   38   70 1
  76   38   71 1
  77   39   40 1
  78   39   72 1
  79   39   73 1
  80   40   41 1
  81   40   74 1
  82   40   75 1
  83   41   76 1
  84   41   77 1

#	End of record

