#	Name: ASD01915339
#	Creating user name:	WinNT
#	Creation time:	15. 06. 2019 20:05

#	Modifying user name:	WinNT
#	Modification time:	15. 06. 2019 20:05

#	Program:	/corina/corina34_cracker 3.40 0067  02.08.2006

@<TRIPOS>MOLECULE
ASD01915339
  35   37    0    0    0
SMALL
NO_CHARGES


@<TRIPOS>ATOM
   1 C1             0.0010     1.3411    -0.0223 C.2     
   2 N2             0.0151    -0.0230    -0.0296 N.pl3   
   3 C3            -1.2184    -0.6279    -0.0143 C.2     
   4 C4            -2.2988     0.1340     0.0058 C.2     
   5 S5            -1.7049     1.8045     0.0110 S.3     
   6 N6             1.2393     1.7658    -0.0383 N.2     
   7 N7             2.0374     0.7575    -0.0551 N.2     
   8 C8             1.3561    -0.3527    -0.0509 C.2     
   9 C9            -3.7349    -0.3223     0.0249 C.3     
  10 C10           -1.3376    -2.1301    -0.0207 C.3     
  11 C11           -4.3860     0.0975     1.3443 C.3     
  12 O12           -4.4506     0.2853    -1.0828 O.3     
  13 C13           -5.4774    -0.4128    -1.6036 C.2     
  14 N14           -6.1834     0.0943    -2.6336 N.am    
  15 O15           -5.7675    -1.5000    -1.1450 O.2     
  16 C16           -7.1764    -0.6769    -3.2483 C.ar    
  17 C17           -8.3263    -0.0700    -3.7356 C.ar    
  18 C18           -9.3055    -0.8328    -4.3420 C.ar    
  19 C19           -9.1426    -2.1999    -4.4643 C.ar    
  20 C20           -7.9969    -2.8094    -3.9796 C.ar    
  21 C21           -7.0108    -2.0494    -3.3771 C.ar    
  22 F22           -7.8403    -4.1459    -4.1005 F       
  23 H23            1.7662    -1.3517    -0.0615 H       
  24 H24           -3.7727    -1.4076    -0.0697 H       
  25 H25           -0.3420    -2.5735    -0.0377 H       
  26 H26           -1.8654    -2.4566     0.8754 H       
  27 H27           -1.8916    -2.4469    -0.9044 H       
  28 H28           -3.8487    -0.3586     2.1758 H       
  29 H29           -4.3482     1.1828     1.4389 H       
  30 H30           -5.4247    -0.2325     1.3581 H       
  31 H31           -6.0033     0.9938    -2.9489 H       
  32 H32           -8.4553     0.9980    -3.6401 H       
  33 H33          -10.1997    -0.3603    -4.7208 H       
  34 H34           -9.9100    -2.7940    -4.9382 H       
  35 H35           -6.1174    -2.5242    -2.9990 H       
@<TRIPOS>BOND
   1    1    2 1
   2    1    6 2
   3    1    5 1
   4    2    3 1
   5    2    8 1
   6    3    4 2
   7    3   10 1
   8    4    5 1
   9    4    9 1
  10    6    7 1
  11    7    8 2
  12    8   23 1
  13    9   11 1
  14    9   12 1
  15    9   24 1
  16   10   25 1
  17   10   26 1
  18   10   27 1
  19   11   28 1
  20   11   29 1
  21   11   30 1
  22   12   13 1
  23   13   14 am
  24   13   15 2
  25   14   16 1
  26   14   31 1
  27   16   17 ar
  28   16   21 ar
  29   17   18 ar
  30   17   32 1
  31   18   19 ar
  32   18   33 1
  33   19   20 ar
  34   19   34 1
  35   20   21 ar
  36   20   22 1
  37   21   35 1

#	End of record

