#	Name: ASD06170189
#	Creating user name:	WinNT
#	Creation time:	15. 06. 2019 21:05

#	Modifying user name:	WinNT
#	Modification time:	15. 06. 2019 21:05

#	Program:	/corina/corina34_cracker 3.40 0067  02.08.2006

@<TRIPOS>MOLECULE
ASD06170189
  65   69    0    0    0
SMALL
NO_CHARGES


@<TRIPOS>ATOM
   1 C1             0.0488     1.2987    -0.1011 C.2     
   2 C2             0.0234    -0.0874     0.2019 C.2     
   3 C3             1.2266    -0.7404     0.4621 C.2     
   4 C4             2.4145    -0.0110     0.4161 C.2     
   5 C5             2.3896     1.3140     0.1216 C.2     
   6 N6             1.2240     1.9553    -0.1323 N.am    
   7 C7            -1.2501    -0.8215     0.2412 C.2     
   8 O8            -1.2519    -2.0288     0.3905 O.2     
   9 N9            -2.4154    -0.1568     0.1117 N.am    
  10 C10            1.2421     3.3862    -0.4459 C.3     
  11 C11            1.1149     4.1813     0.8280 C.ar    
  12 C12            2.2483     4.5557     1.5252 C.ar    
  13 C13            2.1316     5.2849     2.6937 C.ar    
  14 C14            0.8815     5.6402     3.1647 C.ar    
  15 C15           -0.2519     5.2667     2.4670 C.ar    
  16 C16           -0.1350     4.5411     1.2962 C.ar    
  17 O17           -0.9893     1.8920    -0.3374 O.2     
  18 C18            3.7282    -0.6950     0.6942 C.3     
  19 C19           -3.6145    -0.8630     0.0186 C.ar    
  20 C20           -3.5937    -2.2115    -0.3197 C.ar    
  21 C21           -4.7886    -2.9025    -0.4087 C.ar    
  22 C22           -5.9730    -2.2152    -0.1542 C.ar    
  23 C23           -5.9168    -0.8710     0.1776 C.ar    
  24 N24           -4.7589    -0.2437     0.2586 N.ar    
  25 O25           -7.1700    -2.8554    -0.2309 O.3     
  26 N26           -8.1958    -5.3762     2.8682 N.ar    
  27 C27           -7.1032    -4.6527     2.9399 C.ar    
  28 C28           -6.7254    -3.7930     1.9162 C.ar    
  29 C29           -7.5135    -3.6865     0.7838 C.ar    
  30 C30           -8.6875    -4.4702     0.7175 C.ar    
  31 C31           -9.5363    -4.4165    -0.3982 C.ar    
  32 C32          -10.6619    -5.1879    -0.4284 C.ar    
  33 C33          -10.9782    -6.0334     0.6446 C.ar    
  34 C34          -10.1700    -6.1044     1.7424 C.ar    
  35 C35           -9.0042    -5.3230     1.8029 C.ar    
  36 O36          -12.1045    -6.7918     0.5911 O.3     
  37 C37          -12.3738    -7.6334     1.7141 C.3     
  38 O38          -11.4850    -5.1357    -1.5095 O.3     
  39 C39          -11.1082    -4.2547    -2.5697 C.3     
  40 H40            1.2391    -1.7947     0.6960 H       
  41 H41            3.3167     1.8671     0.0893 H       
  42 H42           -2.4201     0.8128     0.0832 H       
  43 H43            2.1809     3.6382    -0.9392 H       
  44 H44            0.4089     3.6238    -1.1072 H       
  45 H45            3.2250     4.2781     1.1572 H       
  46 H46            3.0170     5.5768     3.2388 H       
  47 H47            0.7902     6.2094     4.0781 H       
  48 H48           -1.2286     5.5440     2.8352 H       
  49 H49           -1.0203     4.2524     0.7491 H       
  50 H50            3.5508    -1.7487     0.9096 H       
  51 H51            4.3758    -0.6066    -0.1781 H       
  52 H52            4.2082    -0.2246     1.5523 H       
  53 H53           -2.6565    -2.7130    -0.5109 H       
  54 H54           -4.8028    -3.9503    -0.6699 H       
  55 H55           -6.8311    -0.3316     0.3760 H       
  56 H56           -6.4806    -4.7278     3.8191 H       
  57 H57           -5.8208    -3.2096     2.0042 H       
  58 H58           -9.3004    -3.7678    -1.2288 H       
  59 H59          -10.4260    -6.7594     2.5621 H       
  60 H60          -11.5524    -8.3378     1.8456 H       
  61 H61          -12.4749    -7.0217     2.6106 H       
  62 H62          -13.2996    -8.1827     1.5428 H       
  63 H63          -10.1332    -4.5494    -2.9578 H       
  64 H64          -11.8486    -4.3092    -3.3678 H       
  65 H65          -11.0555    -3.2336    -2.1921 H       
@<TRIPOS>BOND
   1    1    2 1
   2    1    6 am
   3    1   17 2
   4    2    3 2
   5    2    7 1
   6    3    4 1
   7    3   40 1
   8    4    5 2
   9    4   18 1
  10    5    6 1
  11    5   41 1
  12    6   10 1
  13    7    8 2
  14    7    9 am
  15    9   19 1
  16    9   42 1
  17   10   11 1
  18   10   43 1
  19   10   44 1
  20   11   12 ar
  21   11   16 ar
  22   12   13 ar
  23   12   45 1
  24   13   14 ar
  25   13   46 1
  26   14   15 ar
  27   14   47 1
  28   15   16 ar
  29   15   48 1
  30   16   49 1
  31   18   50 1
  32   18   51 1
  33   18   52 1
  34   19   20 ar
  35   19   24 ar
  36   20   21 ar
  37   20   53 1
  38   21   22 ar
  39   21   54 1
  40   22   23 ar
  41   22   25 1
  42   23   24 ar
  43   23   55 1
  44   25   29 1
  45   26   27 ar
  46   26   35 ar
  47   27   28 ar
  48   27   56 1
  49   28   29 ar
  50   28   57 1
  51   29   30 ar
  52   30   31 ar
  53   30   35 ar
  54   31   32 ar
  55   31   58 1
  56   32   33 ar
  57   32   38 1
  58   33   34 ar
  59   33   36 1
  60   34   35 ar
  61   34   59 1
  62   36   37 1
  63   37   60 1
  64   37   61 1
  65   37   62 1
  66   38   39 1
  67   39   63 1
  68   39   64 1
  69   39   65 1

#	End of record

