#	Name: ASD02030375
#	Creating user name:	WinNT
#	Creation time:	15. 06. 2019 20:15

#	Modifying user name:	WinNT
#	Modification time:	15. 06. 2019 20:15

#	Program:	/corina/corina34_cracker 3.40 0067  02.08.2006

@<TRIPOS>MOLECULE
ASD02030375
  17   17    0    0    0
SMALL
NO_CHARGES


@<TRIPOS>ATOM
   1 C1            -0.0144     1.2085     0.0087 C.2     
   2 O2             0.0021    -0.0041     0.0020 O.2     
   3 C3             1.2543     1.9642     0.0006 C.ar    
   4 C4             2.4669     1.2777    -0.0146 C.ar    
   5 C5             3.6520     1.9987    -0.0221 C.ar    
   6 C6             3.5858     3.3808    -0.0140 C.ar    
   7 C7             2.3401     4.0044     0.0012 C.ar    
   8 N8             1.2294     3.2936     0.0025 N.ar    
   9 O9             2.2688     5.3592     0.0096 O.3     
  10 C10            0.9632     5.9400     0.0252 C.3     
  11 Cl11          -1.5294     2.0560     0.0205 Cl      
  12 H12            2.4838     0.1978    -0.0202 H       
  13 H13            4.6058     1.4921    -0.0336 H       
  14 H14            4.4908     3.9702    -0.0191 H       
  15 H15            0.4308     5.6132     0.9184 H       
  16 H16            1.0491     7.0266     0.0306 H       
  17 H17            0.4141     5.6233    -0.8615 H       
@<TRIPOS>BOND
   1    1    2 2
   2    1    3 1
   3    1   11 1
   4    3    4 ar
   5    3    8 ar
   6    4    5 ar
   7    4   12 1
   8    5    6 ar
   9    5   13 1
  10    6    7 ar
  11    6   14 1
  12    7    8 ar
  13    7    9 1
  14    9   10 1
  15   10   15 1
  16   10   16 1
  17   10   17 1

#	End of record

