#	Name: ASD00431120
#	Creating user name:	WinNT
#	Creation time:	15. 06. 2019 18:35

#	Modifying user name:	WinNT
#	Modification time:	15. 06. 2019 18:35

#	Program:	/corina/corina34_cracker 3.40 0067  02.08.2006

@<TRIPOS>MOLECULE
ASD00431120
  47   49    0    0    0
SMALL
NO_CHARGES


@<TRIPOS>ATOM
   1 N1             0.0780     1.1890     0.2999 N.am    
   2 C2             0.1115    -0.1582     0.3221 C.2     
   3 O3             1.1791    -0.7400     0.3131 O.2     
   4 N4            -1.0384    -0.8604     0.3542 N.am    
   5 C5             1.3279     1.9523     0.2650 C.3     
   6 C6             1.8033     2.0865    -1.1831 C.3     
   7 O7             0.0178     4.0989     0.6605 O.3     
   8 N8             0.1101     5.1488     1.2530 N.2     
   9 C9             1.2435     5.2283     1.9109 C.2     
  10 C10            1.9336     4.0076     1.6560 C.2     
  11 C11            1.0958     3.3231     0.8466 C.2     
  12 S12            3.2376     6.4355     3.6179 S.3     
  13 C13            2.8339     7.9902     4.2030 C.2     
  14 N14            1.6699     8.3508     3.7573 N.2     
  15 C15            1.0385     7.5027     2.9755 C.2     
  16 C16            1.7090     6.3543     2.7456 C.2     
  17 O17            3.6172     8.7386     5.0156 O.3     
  18 C18            3.2057     9.9994     5.3148 C.ar    
  19 C19            2.0544    10.1940     6.0639 C.ar    
  20 C20            1.6364    11.4748     6.3677 C.ar    
  21 C21            2.3678    12.5667     5.9238 C.ar    
  22 C22            3.5189    12.3723     5.1747 C.ar    
  23 C23            3.9402    11.0913     4.8757 C.ar    
  24 O24            1.9559    13.8276     6.2225 O.3     
  25 C25            0.6927    13.9595     6.8775 C.3     
  26 C26            0.9062    14.0103     8.3917 C.3     
  27 C27            0.0106    15.2486     6.4151 C.3     
  28 H28           -0.7738     1.6531     0.3030 H       
  29 H29           -1.8901    -0.3963     0.3613 H       
  30 H30           -1.0143    -1.8300     0.3702 H       
  31 H31            2.0871     1.4333     0.8500 H       
  32 H32            1.0441     2.6056    -1.7681 H       
  33 H33            2.7333     2.6545    -1.2090 H       
  34 H34            1.9712     1.0950    -1.6037 H       
  35 H35            2.9014     3.7009     2.0243 H       
  36 H36            0.0658     7.7077     2.5533 H       
  37 H37            1.4847     9.3439     6.4093 H       
  38 H38            0.7399    11.6263     6.9506 H       
  39 H39            4.0881    13.2224     4.8288 H       
  40 H40            4.8389    10.9399     4.2962 H       
  41 H41            0.0631    13.1055     6.6278 H       
  42 H42           -0.0573    14.1109     8.8913 H       
  43 H43            1.3922    13.0919     8.7211 H       
  44 H44            1.5358    14.8643     8.6414 H       
  45 H45           -0.1415    15.2124     5.3363 H       
  46 H46           -0.9529    15.3491     6.9147 H       
  47 H47            0.6402    16.1026     6.6648 H       
@<TRIPOS>BOND
   1    1    2 am
   2    1    5 1
   3    1   28 1
   4    2    3 2
   5    2    4 am
   6    4   29 1
   7    4   30 1
   8    5    6 1
   9    5   11 1
  10    5   31 1
  11    6   32 1
  12    6   33 1
  13    6   34 1
  14    7    8 1
  15    7   11 1
  16    8    9 2
  17    9   10 1
  18    9   16 1
  19   10   11 2
  20   10   35 1
  21   12   13 1
  22   12   16 1
  23   13   14 2
  24   13   17 1
  25   14   15 1
  26   15   16 2
  27   15   36 1
  28   17   18 1
  29   18   19 ar
  30   18   23 ar
  31   19   20 ar
  32   19   37 1
  33   20   21 ar
  34   20   38 1
  35   21   22 ar
  36   21   24 1
  37   22   23 ar
  38   22   39 1
  39   23   40 1
  40   24   25 1
  41   25   26 1
  42   25   27 1
  43   25   41 1
  44   26   42 1
  45   26   43 1
  46   26   44 1
  47   27   45 1
  48   27   46 1
  49   27   47 1

#	End of record

