#	Name: ASD03730025
#	Creating user name:	WinNT
#	Creation time:	15. 06. 2019 20:43

#	Modifying user name:	WinNT
#	Modification time:	15. 06. 2019 20:43

#	Program:	/corina/corina34_cracker 3.40 0067  02.08.2006

@<TRIPOS>MOLECULE
ASD03730025
  34   38    0    0    0
SMALL
NO_CHARGES


@<TRIPOS>ATOM
   1 O1            -0.0164     1.3592     0.0095 O.3     
   2 C2             0.0021    -0.0041     0.0020 C.ar    
   3 C3             1.2397    -0.4884    -0.4152 C.ar    
   4 C4             2.1038     0.7141    -0.6817 C.3     
   5 C5             1.3357     1.8555    -0.0007 C.3     
   6 O6            -1.6105    -3.3141     0.5426 O.3     
   7 C7            -0.7759    -2.2765     0.2563 C.ar    
   8 C8             0.4625    -2.7339    -0.1767 C.ar    
   9 C9             0.4014    -4.2488    -0.1813 C.3     
  10 C10           -1.1214    -4.5069    -0.0932 C.3     
  11 C11            1.4627    -1.8456    -0.5068 C.ar    
  12 C12           -0.9991    -0.9067     0.3383 C.ar    
  13 N13            4.3401     0.7057    -1.1540 N.am    
  14 C14            3.4877     0.5583    -0.1202 C.2     
  15 C15            2.2957     0.9668    -2.1477 C.ar    
  16 C16            1.4301     1.1898    -3.1964 C.ar    
  17 C17            1.9261     1.3957    -4.4723 C.ar    
  18 C18            3.2915     1.3772    -4.6911 C.ar    
  19 C19            4.1616     1.1544    -3.6442 C.ar    
  20 C20            3.6721     0.9469    -2.3568 C.ar    
  21 O21            3.7810     0.3424     1.0367 O.2     
  22 Br22          -0.4361     1.2140    -2.8926 Br      
  23 H23            1.4069     2.7727    -0.5853 H       
  24 H24            1.6976     2.0136     1.0152 H       
  25 H25            0.8122    -4.6524    -1.1068 H       
  26 H26            0.9175    -4.6622     0.6853 H       
  27 H27           -1.3295    -5.3841     0.5194 H       
  28 H28           -1.5523    -4.6185    -1.0882 H       
  29 H29            2.4226    -2.2132    -0.8382 H       
  30 H30           -1.9604    -0.5405     0.6671 H       
  31 H31            5.3051     0.6513    -1.0720 H       
  32 H32            1.2484     1.5701    -5.2950 H       
  33 H33            3.6784     1.5376    -5.6865 H       
  34 H34            5.2265     1.1413    -3.8234 H       
@<TRIPOS>BOND
   1    1    2 1
   2    1    5 1
   3    2    3 ar
   4    2   12 ar
   5    3    4 1
   6    3   11 ar
   7    4    5 1
   8    4   14 1
   9    4   15 1
  10    5   23 1
  11    5   24 1
  12    6    7 1
  13    6   10 1
  14    7    8 ar
  15    7   12 ar
  16    8    9 1
  17    8   11 ar
  18    9   10 1
  19    9   25 1
  20    9   26 1
  21   10   27 1
  22   10   28 1
  23   11   29 1
  24   12   30 1
  25   13   14 am
  26   13   20 1
  27   13   31 1
  28   14   21 2
  29   15   16 ar
  30   15   20 ar
  31   16   17 ar
  32   16   22 1
  33   17   18 ar
  34   17   32 1
  35   18   19 ar
  36   18   33 1
  37   19   20 ar
  38   19   34 1

#	End of record

