#	Name: ASD08178504
#	Creating user name:	WinNT
#	Creation time:	15. 06. 2019 21:19

#	Modifying user name:	WinNT
#	Modification time:	15. 06. 2019 21:19

#	Program:	/corina/corina34_cracker 3.40 0067  02.08.2006

@<TRIPOS>MOLECULE
ASD08178504
  45   47    0    0    0
SMALL
NO_CHARGES


@<TRIPOS>ATOM
   1 N1            -0.0168     1.3863     0.0097 N.pl3   
   2 C2             0.0021    -0.0041     0.0020 C.ar    
   3 C3             1.2170    -0.6881    -0.0133 C.ar    
   4 N4            -1.1345    -0.6854     0.0148 N.ar    
   5 N5            -1.1599    -1.9686     0.0088 N.ar    
   6 C6            -0.0597    -2.6944    -0.0105 C.ar    
   7 C7             1.1814    -2.0736    -0.0199 C.ar    
   8 C8            -0.1496    -4.1987    -0.0166 C.3     
   9 C9            -0.9891    -4.6643     1.1747 C.3     
  10 C10           -1.0804    -6.1916     1.1684 C.3     
  11 C11           -1.9199    -6.6572     2.3598 C.3     
  12 C12           -2.0099    -8.1615     2.3536 C.2     
  13 N13           -1.1920    -8.9782     2.9383 N.2     
  14 N14           -1.4395   -10.2100     2.8153 N.2     
  15 C15           -2.4828   -10.5489     2.1197 C.2     
  16 S16           -3.2522    -9.1262     1.5551 S.3     
  17 N17           -2.9080   -11.8509     1.8781 N.am    
  18 C18           -2.2166   -12.8907     2.3853 C.2     
  19 C19           -2.6774   -14.3014     2.1235 C.3     
  20 O20           -1.2235   -12.6910     3.0523 O.2     
  21 C21           -1.7385   -15.2695     2.7961 C.ar    
  22 C22           -2.2408   -16.2063     3.6790 C.ar    
  23 C23           -1.3683   -17.0925     4.2926 C.ar    
  24 C24           -0.0177   -17.0024     3.9935 C.ar    
  25 C25            0.4115   -16.0390     3.1000 C.ar    
  26 N26           -0.4476   -15.2162     2.5312 N.ar    
  27 H27            0.8166     1.8827     0.0044 H       
  28 H28           -0.8633     1.8598     0.0163 H       
  29 H29            2.1563    -0.1550    -0.0201 H       
  30 H30            2.0927    -2.6531    -0.0356 H       
  31 H31           -0.6180    -4.5309    -0.9431 H       
  32 H32            0.8518    -4.6229     0.0566 H       
  33 H33           -0.5207    -4.3322     2.1012 H       
  34 H34           -1.9905    -4.2402     1.1014 H       
  35 H35           -1.5488    -6.5238     0.2419 H       
  36 H36           -0.0790    -6.6158     1.2417 H       
  37 H37           -1.4515    -6.3251     3.2863 H       
  38 H38           -2.9213    -6.2331     2.2865 H       
  39 H39           -3.7022   -12.0106     1.3446 H       
  40 H40           -3.6833   -14.4348     2.5216 H       
  41 H41           -2.6838   -14.4882     1.0497 H       
  42 H42           -3.2994   -16.2476     3.8887 H       
  43 H43           -1.7324   -17.8351     4.9872 H       
  44 H44            0.6903   -17.6761     4.4531 H       
  45 H45            1.4621   -15.9620     2.8620 H       
@<TRIPOS>BOND
   1    1    2 1
   2    1   27 1
   3    1   28 1
   4    2    3 ar
   5    2    4 ar
   6    3    7 ar
   7    3   29 1
   8    4    5 ar
   9    5    6 ar
  10    6    7 ar
  11    6    8 1
  12    7   30 1
  13    8    9 1
  14    8   31 1
  15    8   32 1
  16    9   10 1
  17    9   33 1
  18    9   34 1
  19   10   11 1
  20   10   35 1
  21   10   36 1
  22   11   12 1
  23   11   37 1
  24   11   38 1
  25   12   13 2
  26   12   16 1
  27   13   14 1
  28   14   15 2
  29   15   16 1
  30   15   17 1
  31   17   18 am
  32   17   39 1
  33   18   19 1
  34   18   20 2
  35   19   21 1
  36   19   40 1
  37   19   41 1
  38   21   22 ar
  39   21   26 ar
  40   22   23 ar
  41   22   42 1
  42   23   24 ar
  43   23   43 1
  44   24   25 ar
  45   24   44 1
  46   25   26 ar
  47   25   45 1

#	End of record

