#	Name: ASD01813720
#	Creating user name:	WinNT
#	Creation time:	15. 06. 2019 19:31

#	Modifying user name:	WinNT
#	Modification time:	15. 06. 2019 19:31

#	Program:	/corina/corina34_cracker 3.40 0067  02.08.2006

@<TRIPOS>MOLECULE
ASD01813720
  41   44    0    0    0
SMALL
NO_CHARGES


@<TRIPOS>ATOM
   1 C1            -0.0168     1.3835    -0.0504 C.ar    
   2 C2             0.0020    -0.0038    -0.0574 C.ar    
   3 C3             1.1976    -0.6920    -0.0527 C.ar    
   4 C4             2.4035     0.0084    -0.0408 C.ar    
   5 C5             2.3796     1.4130    -0.0338 C.ar    
   6 C6             1.1627     2.0947    -0.0386 C.ar    
   7 N7             3.6056    -0.6668    -0.0350 N.pl3   
   8 C8             4.7891    -0.0410    -0.0222 C.2     
   9 C9             4.8932     1.3356    -0.0139 C.2     
  10 C10            3.6619     2.1417    -0.0212 C.2     
  11 O11            3.7002     3.3596    -0.0146 O.2     
  12 C12            6.2115     1.9851     0.0011 C.2     
  13 O13            6.3001     3.3302     0.0092 O.3     
  14 O14            7.2220     1.3094     0.0063 O.2     
  15 C15            3.5871    -2.1316    -0.0427 C.3     
  16 C16            3.4445    -2.6248    -1.4595 C.ar    
  17 N17            2.2438    -2.7322    -2.0021 N.ar    
  18 C18            2.1143    -3.1633    -3.2429 C.ar    
  19 C19            3.2470    -3.5055    -3.9811 C.ar    
  20 N20            4.4521    -3.3955    -3.4305 N.ar    
  21 C21            4.5719    -2.9584    -2.1906 C.ar    
  22 F22            1.2003    -2.0429    -0.0592 F       
  23 C23            3.1075    -3.9910    -5.3758 C.ar    
  24 C24            1.8605    -4.0122    -5.9967 C.ar    
  25 N25            1.7354    -4.4432    -7.2352 N.ar    
  26 C26            2.7713    -4.8678    -7.9325 C.ar    
  27 C27            4.0423    -4.8780    -7.3869 C.ar    
  28 C28            4.2262    -4.4293    -6.0905 C.ar    
  29 H29           -0.9607     1.9082    -0.0587 H       
  30 H30           -0.9292    -0.5507    -0.0663 H       
  31 H31            1.1454     3.1746    -0.0335 H       
  32 H32            5.6925    -0.6328    -0.0179 H       
  33 H33            7.1887     3.7116     0.0190 H       
  34 H34            4.5175    -2.5090     0.3815 H       
  35 H35            2.7459    -2.4875     0.5522 H       
  36 H36            1.1331    -3.2512    -3.6855 H       
  37 H37            5.5506    -2.8686    -1.7430 H       
  38 H38            0.9884    -3.6725    -5.4576 H       
  39 H39            2.6248    -5.2133    -8.9452 H       
  40 H40            4.8828    -5.2280    -7.9677 H       
  41 H41            5.2075    -4.4262    -5.6396 H       
@<TRIPOS>BOND
   1    1    2 ar
   2    1    6 ar
   3    1   29 1
   4    2    3 ar
   5    2   30 1
   6    3   22 1
   7    3    4 ar
   8    4    5 ar
   9    4    7 1
  10    5    6 ar
  11    5   10 1
  12    6   31 1
  13    7    8 1
  14    7   15 1
  15    8    9 2
  16    8   32 1
  17    9   10 1
  18    9   12 1
  19   10   11 2
  20   12   13 1
  21   12   14 2
  22   13   33 1
  23   15   16 1
  24   15   34 1
  25   15   35 1
  26   16   17 ar
  27   16   21 ar
  28   17   18 ar
  29   18   19 ar
  30   18   36 1
  31   19   20 ar
  32   19   23 1
  33   20   21 ar
  34   21   37 1
  35   23   24 ar
  36   23   28 ar
  37   24   25 ar
  38   24   38 1
  39   25   26 ar
  40   26   27 ar
  41   26   39 1
  42   27   28 ar
  43   27   40 1
  44   28   41 1

#	End of record

