#	Name: ASD04170042
#	Creating user name:	WinNT
#	Creation time:	15. 06. 2019 20:48

#	Modifying user name:	WinNT
#	Modification time:	15. 06. 2019 20:48

#	Program:	/corina/corina34_cracker 3.40 0067  02.08.2006

@<TRIPOS>MOLECULE
ASD04170042
  37   39    0    0    0
SMALL
NO_CHARGES


@<TRIPOS>ATOM
   1 Cl1            0.0021    -0.0041     0.0020 Cl      
   2 C2            -0.0215     1.7317     0.0116 C.ar    
   3 C3             1.1670     2.4400     0.0040 C.ar    
   4 C4             1.1476     3.8220     0.0117 C.ar    
   5 C5            -0.0590     4.4966     0.0273 C.ar    
   6 C6            -1.2468     3.7894     0.0353 C.ar    
   7 C7            -1.2287     2.4074     0.0210 C.ar    
   8 C8            -0.0794     6.0034     0.0362 C.3     
   9 N9            -0.0995     6.5009    -1.3459 N.4     
  10 C10           -0.1195     7.9698    -1.3373 C.3     
  11 C11            1.1870     8.4972    -0.7372 C.3     
  12 N12            1.8812     9.3250    -1.7326 N.3     
  13 C13            1.0725    10.4945    -2.1032 C.3     
  14 C14           -0.2374    10.0240    -2.7417 C.3     
  15 C15           -0.2499     8.4905    -2.7741 C.3     
  16 C16            0.9622     8.0083    -3.5811 C.3     
  17 C17            2.2385     8.5354    -2.9193 C.3     
  18 H18            2.1097     1.9131    -0.0075 H       
  19 H19            2.0753     4.3750     0.0058 H       
  20 H20           -2.1891     4.3169     0.0479 H       
  21 H21           -2.1568     1.8551     0.0272 H       
  22 H22           -0.9692     6.3516     0.5607 H       
  23 H23            0.8106     6.3759     0.5435 H       
  24 H24            0.7241     6.1786    -1.8314 H       
  25 H25           -0.9234     6.1562    -1.8155 H       
  26 H26           -0.9625     8.3201    -0.7418 H       
  27 H27            0.9656     9.0982     0.1448 H       
  28 H28            1.8227     7.6578    -0.4553 H       
  29 H29            0.8521    11.0816    -1.2117 H       
  30 H30            1.6246    11.1076    -2.8155 H       
  31 H31           -1.0808    10.3837    -2.1524 H       
  32 H32           -0.3080    10.4113    -3.7581 H       
  33 H33           -1.1780     8.1325    -3.2197 H       
  34 H34            0.9814     6.9185    -3.5953 H       
  35 H35            0.8962     8.3875    -4.6009 H       
  36 H36            2.7810     9.1645    -3.6250 H       
  37 H37            2.8672     7.6961    -2.6218 H       
@<TRIPOS>BOND
   1    1    2 1
   2    2    3 ar
   3    2    7 ar
   4    3    4 ar
   5    3   18 1
   6    4    5 ar
   7    4   19 1
   8    5    6 ar
   9    5    8 1
  10    6    7 ar
  11    6   20 1
  12    7   21 1
  13    8    9 1
  14    8   22 1
  15    8   23 1
  16    9   10 1
  17    9   24 1
  18    9   25 1
  19   10   11 1
  20   10   15 1
  21   10   26 1
  22   11   12 1
  23   11   27 1
  24   11   28 1
  25   12   13 1
  26   12   17 1
  27   13   14 1
  28   13   29 1
  29   13   30 1
  30   14   15 1
  31   14   31 1
  32   14   32 1
  33   15   16 1
  34   15   33 1
  35   16   17 1
  36   16   34 1
  37   16   35 1
  38   17   36 1
  39   17   37 1

#	End of record

