#	Name: ASD07301381
#	Creating user name:	WinNT
#	Creation time:	15. 06. 2019 21:11

#	Modifying user name:	WinNT
#	Modification time:	15. 06. 2019 21:11

#	Program:	/corina/corina34_cracker 3.40 0067  02.08.2006

@<TRIPOS>MOLECULE
ASD07301381
  30   31    0    0    0
SMALL
NO_CHARGES


@<TRIPOS>ATOM
   1 C1            -0.0179     1.4667     0.0101 C.2     
   2 C2             0.0021    -0.0041     0.0020 C.2     
   3 C3             1.2776    -0.6366    -0.0136 C.2     
   4 C4             2.3787     0.1588    -0.0198 C.2     
   5 N5             2.2594     1.5103    -0.0110 N.pl3   
   6 N6             1.1310     2.1179     0.0026 N.2     
   7 O7            -1.0312    -0.6548     0.0088 O.2     
   8 O8             1.3897    -1.9914    -0.0215 O.3     
   9 C9             2.7121    -2.5328    -0.0370 C.3     
  10 C10            3.4275     2.2797    -0.0170 C.ar    
  11 C11            3.6391     3.2346     0.9730 C.ar    
  12 C12            4.7956     3.9929     0.9627 C.ar    
  13 C13            5.7397     3.8025    -0.0296 C.ar    
  14 C14            5.5315     2.8543    -1.0143 C.ar    
  15 C15            4.3817     2.0888    -1.0077 C.ar    
  16 F16            2.7164     3.4207     1.9421 F       
  17 C17           -1.2917     2.1974     0.0202 C.2     
  18 O18           -2.3404     1.5880     0.0218 O.2     
  19 C19           -1.2959     3.7043     0.0284 C.3     
  20 H20            3.3609    -0.2900    -0.0316 H       
  21 H21            2.6589    -3.6215    -0.0420 H       
  22 H22            3.2343    -2.1905    -0.9304 H       
  23 H23            3.2516    -2.1995     0.8494 H       
  24 H24            4.9613     4.7347     1.7300 H       
  25 H25            6.6419     4.3962    -0.0357 H       
  26 H26            6.2713     2.7090    -1.7876 H       
  27 H27            4.2228     1.3456    -1.7750 H       
  28 H28           -0.2693     4.0706     0.0255 H       
  29 H29           -1.8150     4.0711    -0.8572 H       
  30 H30           -1.8065     4.0614     0.9227 H       
@<TRIPOS>BOND
   1    1    2 1
   2    1    6 2
   3    1   17 1
   4    2    3 1
   5    2    7 2
   6    3    4 2
   7    3    8 1
   8    4    5 1
   9    4   20 1
  10    5    6 1
  11    5   10 1
  12    8    9 1
  13    9   21 1
  14    9   22 1
  15    9   23 1
  16   10   11 ar
  17   10   15 ar
  18   11   12 ar
  19   11   16 1
  20   12   13 ar
  21   12   24 1
  22   13   14 ar
  23   13   25 1
  24   14   15 ar
  25   14   26 1
  26   15   27 1
  27   17   18 2
  28   17   19 1
  29   19   28 1
  30   19   29 1
  31   19   30 1

#	End of record

