#	Name: ASD07300673
#	Creating user name:	WinNT
#	Creation time:	15. 06. 2019 21:10

#	Modifying user name:	WinNT
#	Modification time:	15. 06. 2019 21:10

#	Program:	/corina/corina34_cracker 3.40 0067  02.08.2006

@<TRIPOS>MOLECULE
ASD07300673
  24   24    0    0    0
SMALL
NO_CHARGES


@<TRIPOS>ATOM
   1 C1            -0.0167     1.3781     0.0096 C.ar    
   2 C2             0.0021    -0.0041     0.0020 C.ar    
   3 C3             1.2214    -0.6632    -0.0131 C.ar    
   4 C4             2.3825     0.0965    -0.0201 C.ar    
   5 C5             2.2848     1.4758    -0.0118 C.ar    
   6 N6             1.1068     2.0683     0.0026 N.ar    
   7 C7            -1.3369     2.1047     0.0198 C.3     
   8 C8            -1.0881     3.6144     0.0268 C.3     
   9 C9            -2.1373     1.7256    -1.2278 C.3     
  10 O10           -2.0735     1.7379     1.1881 O.3     
  11 C11           -3.3482     2.3749     1.2952 C.3     
  12 Br12           4.0765    -0.7436    -0.0402 Br      
  13 H13           -0.9218    -0.5634     0.0082 H       
  14 H14            1.2666    -1.7422    -0.0190 H       
  15 H15            3.1836     2.0747    -0.0168 H       
  16 H16           -0.5262     3.8942    -0.8643 H       
  17 H17           -2.0430     4.1399     0.0342 H       
  18 H18           -0.5178     3.8845     0.9156 H       
  19 H19           -2.3146     0.6501    -1.2328 H       
  20 H20           -3.0922     2.2512    -1.2204 H       
  21 H21           -1.5754     2.0054    -2.1189 H       
  22 H22           -3.2127     3.4559     1.3267 H       
  23 H23           -3.9602     2.1104     0.4329 H       
  24 H24           -3.8441     2.0441     2.2078 H       
@<TRIPOS>BOND
   1    1    2 ar
   2    1    6 ar
   3    1    7 1
   4    2    3 ar
   5    2   13 1
   6    3    4 ar
   7    3   14 1
   8    4    5 ar
   9    4   12 1
  10    5    6 ar
  11    5   15 1
  12    7    8 1
  13    7    9 1
  14    7   10 1
  15    8   16 1
  16    8   17 1
  17    8   18 1
  18    9   19 1
  19    9   20 1
  20    9   21 1
  21   10   11 1
  22   11   22 1
  23   11   23 1
  24   11   24 1

#	End of record

