#	Name: ASD01811754
#	Creating user name:	WinNT
#	Creation time:	15. 06. 2019 19:27

#	Modifying user name:	WinNT
#	Modification time:	15. 06. 2019 19:27

#	Program:	/corina/corina34_cracker 3.40 0067  02.08.2006

@<TRIPOS>MOLECULE
ASD01811754
  63   67    0    0    0
SMALL
NO_CHARGES


@<TRIPOS>ATOM
   1 C1            -0.0167     1.3805     0.0096 C.ar    
   2 C2             0.0021    -0.0041     0.0020 C.ar    
   3 C3            -1.1845    -0.7161     0.0090 C.ar    
   4 C4            -2.3942    -0.0535     0.0241 C.ar    
   5 C5            -2.4213     1.3425     0.0323 C.ar    
   6 C6            -1.2177     2.0512     0.0304 C.ar    
   7 C7             1.2777     2.1522     0.0014 C.3     
   8 C8             1.3184    -0.7376    -0.0144 C.3     
   9 C9            -1.1549    -2.2228    -0.0004 C.3     
  10 C10           -1.0078    -2.7311     1.4107 C.ar    
  11 C11           -2.1340    -2.9877     2.1716 C.ar    
  12 C12           -2.0050    -3.4534     3.4645 C.ar    
  13 C13           -0.7375    -3.6654     4.0026 C.ar    
  14 C14            0.3935    -3.4057     3.2315 C.ar    
  15 C15            0.2529    -2.9448     1.9382 C.ar    
  16 C16           -0.5926    -4.1656     5.3925 C.2     
  17 C17            0.6217    -4.4225     6.0583 C.2     
  18 C18            0.3274    -4.8625     7.3011 C.2     
  19 N19           -1.0169    -4.8868     7.4272 N.pl3   
  20 N20           -1.5760    -4.4419     6.2225 N.2     
  21 C21           -1.7611    -5.3019     8.6188 C.3     
  22 C22           -3.5309     2.3149     0.0477 C.2     
  23 N23           -3.0504     3.5703     0.0501 N.am    
  24 C24           -1.5841     3.5142     0.0402 C.3     
  25 O25           -4.7107     2.0226     0.0563 O.2     
  26 C26           -3.8575     4.7928     0.0640 C.3     
  27 C27           -4.7285     4.8146     1.3217 C.3     
  28 C28           -5.5714     6.0914     1.3363 C.3     
  29 C29           -6.4661     6.1261     0.0956 C.3     
  30 C30           -5.5951     6.1043    -1.1620 C.3     
  31 C31           -4.7522     4.8275    -1.1766 C.3     
  32 O32           -3.8929     4.7823     2.4805 O.3     
  33 H33           -3.3180    -0.6130     0.0291 H       
  34 H34            1.5800     2.3437    -1.0282 H       
  35 H35            1.1390     3.0999     0.5217 H       
  36 H36            2.0504     1.5710     0.5048 H       
  37 H37            1.6456    -0.9199     1.0092 H       
  38 H38            1.1977    -1.6891    -0.5323 H       
  39 H39            2.0641    -0.1342    -0.5322 H       
  40 H40           -2.0831    -2.6018    -0.4281 H       
  41 H41           -0.3118    -2.5659    -0.5999 H       
  42 H42           -3.1161    -2.8230     1.7535 H       
  43 H43           -2.8850    -3.6527     4.0580 H       
  44 H44            1.3784    -3.5684     3.6438 H       
  45 H45            1.1289    -2.7436     1.3394 H       
  46 H46            1.6121    -4.2914     5.6480 H       
  47 H47            1.0416    -5.1451     8.0603 H       
  48 H48           -1.9307    -4.4375     9.2608 H       
  49 H49           -2.7197    -5.7256     8.3192 H       
  50 H50           -1.1867    -6.0516     9.1631 H       
  51 H51           -1.1849     3.9949     0.9333 H       
  52 H52           -1.1966     4.0028    -0.8538 H       
  53 H53           -3.2001     5.6623     0.0623 H       
  54 H54           -5.3859     3.9452     1.3235 H       
  55 H55           -6.1919     6.1069     2.2323 H       
  56 H56           -4.9140     6.9608     1.3345 H       
  57 H57           -7.1235     5.2566     0.0974 H       
  58 H58           -7.0666     7.0357     0.1060 H       
  59 H59           -6.2325     6.1290    -2.0459 H       
  60 H60           -4.9377     6.9737    -1.1638 H       
  61 H61           -4.1317     4.8120    -2.0726 H       
  62 H62           -5.4096     3.9581    -1.1749 H       
  63 H63           -4.3789     4.7937     3.3164 H       
@<TRIPOS>BOND
   1    1    2 ar
   2    1    7 1
   3    1    6 ar
   4    2    3 ar
   5    2    8 1
   6    3    4 ar
   7    3    9 1
   8    4    5 ar
   9    4   33 1
  10    5    6 ar
  11    5   22 1
  12    6   24 1
  13    7   34 1
  14    7   35 1
  15    7   36 1
  16    8   37 1
  17    8   38 1
  18    8   39 1
  19    9   10 1
  20    9   40 1
  21    9   41 1
  22   10   11 ar
  23   10   15 ar
  24   11   12 ar
  25   11   42 1
  26   12   13 ar
  27   12   43 1
  28   13   14 ar
  29   13   16 1
  30   14   15 ar
  31   14   44 1
  32   15   45 1
  33   16   17 1
  34   16   20 2
  35   17   18 2
  36   17   46 1
  37   18   19 1
  38   18   47 1
  39   19   20 1
  40   19   21 1
  41   21   48 1
  42   21   49 1
  43   21   50 1
  44   22   23 am
  45   22   25 2
  46   23   24 1
  47   23   26 1
  48   24   51 1
  49   24   52 1
  50   26   27 1
  51   26   31 1
  52   26   53 1
  53   27   28 1
  54   27   32 1
  55   27   54 1
  56   28   29 1
  57   28   55 1
  58   28   56 1
  59   29   30 1
  60   29   57 1
  61   29   58 1
  62   30   31 1
  63   30   59 1
  64   30   60 1
  65   31   61 1
  66   31   62 1
  67   32   63 1

#	End of record

