#	Name: ASD00061025
#	Creating user name:	WinNT
#	Creation time:	15. 06. 2019 18:29

#	Modifying user name:	WinNT
#	Modification time:	15. 06. 2019 18:29

#	Program:	/corina/corina34_cracker 3.40 0067  02.08.2006

@<TRIPOS>MOLECULE
ASD00061025
  39   40    0    0    0
SMALL
NO_CHARGES


@<TRIPOS>ATOM
   1 C1            -0.4211     3.9419    -0.3682 C.ar    
   2 C2            -0.9389     2.6604    -0.4672 C.ar    
   3 C3            -0.0930     1.5629    -0.4766 C.ar    
   4 C4             1.2709     1.7392    -0.3873 C.ar    
   5 C5             1.8009     3.0300    -0.2875 C.ar    
   6 C6             0.9408     4.1333    -0.2787 C.ar    
   7 C7             3.2555     3.2262    -0.1914 C.2     
   8 C8             3.8225     4.6183    -0.0840 C.3     
   9 O9             3.9983     2.2678    -0.1985 O.2     
  10 C10            5.3331     4.5374     0.1451 C.3     
  11 C11            5.9202     5.9251     0.1192 C.ar    
  12 C12            6.8845     6.2501    -0.8165 C.ar    
  13 C13            7.4233     7.5226    -0.8407 C.ar    
  14 C14            6.9973     8.4714     0.0718 C.ar    
  15 C15            6.0322     8.1455     1.0080 C.ar    
  16 C16            5.4901     6.8743     1.0276 C.ar    
  17 Cl17          -2.6557     2.4288    -0.5796 Cl      
  18 Cl18           7.6740    10.0698     0.0424 Cl      
  19 C19            5.6089     3.8922     1.5047 C.3     
  20 C20            7.0899     3.9192     1.7824 C.2     
  21 O21            7.5070     4.4482     2.7854 O.2     
  22 O22            7.9456     3.3554     0.9154 O.3     
  23 C23            4.8821     4.6574     2.5805 C.2     
  24 O24            5.4692     5.4880     3.2326 O.2     
  25 O25            3.5825     4.4162     2.8142 O.3     
  26 H26           -1.0860     4.7929    -0.3657 H       
  27 H27           -0.5036     0.5670    -0.5537 H       
  28 H28            1.9290     0.8828    -0.3940 H       
  29 H29            1.3430     5.1327    -0.2023 H       
  30 H30            3.6237     5.1638    -1.0065 H       
  31 H31            3.3554     5.1374     0.7529 H       
  32 H32            5.7882     3.9357    -0.6416 H       
  33 H33            7.2171     5.5093    -1.5286 H       
  34 H34            8.1769     7.7763    -1.5716 H       
  35 H35            5.6993     8.8857     1.7206 H       
  36 H36            4.7367     6.6198     1.7584 H       
  37 H37            5.2599     2.8597     1.4944 H       
  38 H38            8.8893     3.4625     1.0975 H       
  39 H39            3.1593     4.9319     3.5143 H       
@<TRIPOS>BOND
   1    1    2 ar
   2    1    6 ar
   3    1   26 1
   4    2    3 ar
   5    2   17 1
   6    3    4 ar
   7    3   27 1
   8    4    5 ar
   9    4   28 1
  10    5    6 ar
  11    5    7 1
  12    6   29 1
  13    7    8 1
  14    7    9 2
  15    8   10 1
  16    8   30 1
  17    8   31 1
  18   10   11 1
  19   10   19 1
  20   10   32 1
  21   11   12 ar
  22   11   16 ar
  23   12   13 ar
  24   12   33 1
  25   13   14 ar
  26   13   34 1
  27   14   15 ar
  28   14   18 1
  29   15   16 ar
  30   15   35 1
  31   16   36 1
  32   19   20 1
  33   19   23 1
  34   19   37 1
  35   20   21 2
  36   20   22 1
  37   22   38 1
  38   23   24 2
  39   23   25 1
  40   25   39 1

#	End of record

