#	Name: ASD01911843
#	Creating user name:	WinNT
#	Creation time:	15. 06. 2019 19:58

#	Modifying user name:	WinNT
#	Modification time:	15. 06. 2019 19:58

#	Program:	/corina/corina34_cracker 3.40 0067  02.08.2006

@<TRIPOS>MOLECULE
ASD01911843
  35   37    0    0    0
SMALL
NO_CHARGES


@<TRIPOS>ATOM
   1 C1            -1.0604    -0.5027    -2.0838 C.ar    
   2 C2            -1.0561     0.0557    -0.8091 C.ar    
   3 C3            -1.0048     1.4359    -0.6785 C.ar    
   4 N4            -0.9608     2.2113    -1.7438 N.ar    
   5 C5            -0.9636     1.7143    -2.9651 C.ar    
   6 C6            -1.0131     0.3487    -3.1756 C.ar    
   7 O7            -1.1018    -0.7395     0.2919 O.3     
   8 C8            -1.1522    -2.0846     0.1057 C.ar    
   9 C9            -0.0017    -2.7821    -0.2369 C.ar    
  10 C10           -0.0515    -4.1497    -0.4267 C.ar    
  11 C11           -1.2459    -4.8278    -0.2763 C.ar    
  12 C12           -2.4004    -4.1352     0.0664 C.ar    
  13 C13           -2.3512    -2.7619     0.2631 C.ar    
  14 N14           -3.6093    -4.8213     0.2182 N.am    
  15 C15           -4.7715    -4.2168    -0.0983 C.2     
  16 C16           -6.0581    -4.9040     0.1599 C.ar    
  17 C17           -7.2554    -4.2739    -0.1694 C.ar    
  18 C18           -8.4522    -4.9291     0.0779 C.ar    
  19 C19           -8.4097    -6.1917     0.6461 C.ar    
  20 N20           -6.0595    -6.1177     0.6984 N.ar    
  21 O21           -4.7640    -3.1079    -0.5955 O.2     
  22 C22           -7.1804    -6.7600     0.9489 C.ar    
  23 Cl23          -7.1204    -8.3419     1.6616 Cl      
  24 H24           -1.0953    -1.5737    -2.2185 H       
  25 H25           -1.0013     1.8798     0.3061 H       
  26 H26           -0.9266     2.3829    -3.8124 H       
  27 H27           -1.0150    -0.0496    -4.1794 H       
  28 H28            0.9333    -2.2549    -0.3556 H       
  29 H29            0.8449    -4.6898    -0.6934 H       
  30 H30           -1.2821    -5.8968    -0.4255 H       
  31 H31           -3.2472    -2.2211     0.5295 H       
  32 H32           -3.6114    -5.7323     0.5513 H       
  33 H33           -7.2520    -3.2884    -0.6111 H       
  34 H34           -9.3964    -4.4652    -0.1666 H       
  35 H35           -9.3241    -6.7284     0.8516 H       
@<TRIPOS>BOND
   1    1    2 ar
   2    1    6 ar
   3    1   24 1
   4    2    3 ar
   5    2    7 1
   6    3    4 ar
   7    3   25 1
   8    4    5 ar
   9    5    6 ar
  10    5   26 1
  11    6   27 1
  12    7    8 1
  13    8    9 ar
  14    8   13 ar
  15    9   10 ar
  16    9   28 1
  17   10   11 ar
  18   10   29 1
  19   11   12 ar
  20   11   30 1
  21   12   13 ar
  22   12   14 1
  23   13   31 1
  24   14   15 am
  25   14   32 1
  26   15   16 1
  27   15   21 2
  28   16   17 ar
  29   16   20 ar
  30   17   18 ar
  31   17   33 1
  32   18   19 ar
  33   18   34 1
  34   19   22 ar
  35   19   35 1
  36   20   22 ar
  37   22   23 1

#	End of record

