#	Name: ASD01815176
#	Creating user name:	WinNT
#	Creation time:	15. 06. 2019 19:33

#	Modifying user name:	WinNT
#	Modification time:	15. 06. 2019 19:33

#	Program:	/corina/corina34_cracker 3.40 0067  02.08.2006

@<TRIPOS>MOLECULE
ASD01815176
  43   46    0    0    0
SMALL
NO_CHARGES


@<TRIPOS>ATOM
   1 C1            -0.0167     1.3820     0.0096 C.ar    
   2 C2             0.0021    -0.0041     0.0020 C.ar    
   3 C3             1.1959    -0.6932    -0.0127 C.ar    
   4 C4             2.4016     0.0019    -0.0200 C.ar    
   5 C5             2.3831     1.4075    -0.0128 C.ar    
   6 C6             1.1665     2.0939     0.0022 C.ar    
   7 N7             3.6010    -0.6771    -0.0337 N.pl3   
   8 C8             4.7870    -0.0549    -0.0404 C.2     
   9 C9             4.8957     1.3208    -0.0340 C.2     
  10 C10            3.6667     2.1313    -0.0207 C.2     
  11 C11            3.5775    -2.1419    -0.0409 C.3     
  12 H12            1.1956    -1.7731    -0.0181 H       
  13 O13            3.7091     3.3491    -0.0150 O.2     
  14 C14            6.2161     1.9660    -0.0412 C.2     
  15 O15            6.3092     3.3109    -0.0348 O.3     
  16 O16            7.2244     1.2870    -0.0529 O.2     
  17 C17            3.5572    -2.6371    -1.4640 C.ar    
  18 N18            2.4062    -2.7376    -2.1000 N.ar    
  19 C19            2.3343    -3.1647    -3.3442 C.ar    
  20 C20            3.4871    -3.5291    -4.0366 C.ar    
  21 C21            4.7226    -3.4338    -3.3899 C.ar    
  22 C22            4.7466    -2.9737    -2.0847 C.ar    
  23 F23            1.1476     3.4448     0.0091 F       
  24 C24            3.4046    -4.0109    -5.4375 C.2     
  25 C25            4.1732    -3.5152    -6.4247 C.2     
  26 S26            3.7903    -4.3315    -7.9345 S.3     
  27 C27            2.5815    -5.3245    -7.1322 C.2     
  28 C28            2.5290    -5.0183    -5.8384 C.2     
  29 C29            1.5861    -5.7010    -4.8814 C.3     
  30 H30           -0.9604     1.9071     0.0170 H       
  31 H31           -0.9295    -0.5505     0.0080 H       
  32 H32            5.6884    -0.6497    -0.0508 H       
  33 H33            4.4660    -2.5220     0.4634 H       
  34 H34            2.6863    -2.4936     0.4789 H       
  35 H35            7.1990     3.6894    -0.0400 H       
  36 H36            1.3730    -3.2334    -3.8317 H       
  37 H37            5.6357    -3.7083    -3.8971 H       
  38 H38            5.6831    -2.8866    -1.5538 H       
  39 H39            4.9112    -2.7354    -6.3078 H       
  40 H40            1.9749    -6.0753    -7.6167 H       
  41 H41            2.0738    -6.5769    -4.4536 H       
  42 H42            1.3151    -5.0099    -4.0832 H       
  43 H43            0.6873    -6.0100    -5.4151 H       
@<TRIPOS>BOND
   1    1    2 ar
   2    1    6 ar
   3    1   30 1
   4    2    3 ar
   5    2   31 1
   6    3    4 ar
   7    3   12 1
   8    4    5 ar
   9    4    7 1
  10    5    6 ar
  11    5   10 1
  12    6   23 1
  13    7    8 1
  14    7   11 1
  15    8    9 2
  16    8   32 1
  17    9   10 1
  18    9   14 1
  19   10   13 2
  20   11   17 1
  21   11   33 1
  22   11   34 1
  23   14   15 1
  24   14   16 2
  25   15   35 1
  26   17   18 ar
  27   17   22 ar
  28   18   19 ar
  29   19   20 ar
  30   19   36 1
  31   20   21 ar
  32   20   24 1
  33   21   22 ar
  34   21   37 1
  35   22   38 1
  36   24   25 2
  37   24   28 1
  38   25   26 1
  39   25   39 1
  40   26   27 1
  41   27   28 2
  42   27   40 1
  43   28   29 1
  44   29   41 1
  45   29   42 1
  46   29   43 1

#	End of record

