#	Name: ASD03082091
#	Creating user name:	WinNT
#	Creation time:	15. 06. 2019 20:27

#	Modifying user name:	WinNT
#	Modification time:	15. 06. 2019 20:27

#	Program:	/corina/corina34_cracker 3.40 0067  02.08.2006

@<TRIPOS>MOLECULE
ASD03082091
  79   83    0    0    0
SMALL
NO_CHARGES


@<TRIPOS>ATOM
   1 C1            -0.0176     1.4478     0.0100 C.3     
   2 O2             0.0021    -0.0041     0.0020 O.3     
   3 C3            -1.1901    -0.6321     0.0100 C.2     
   4 C4            -1.2473    -2.1054     0.0027 C.ar    
   5 O5            -2.2179     0.0157     0.0233 O.2     
   6 C6            -0.0682    -2.8542    -0.0126 C.ar    
   7 C7            -0.1286    -4.2314    -0.0190 C.ar    
   8 C8            -1.3536    -4.8776    -0.0103 C.ar    
   9 C9            -2.5275    -4.1501     0.0044 C.ar    
  10 C10           -2.4861    -2.7636     0.0168 C.ar    
  11 C11            1.4178     1.9774    -0.0009 C.3     
  12 C12            2.0960     1.5891    -1.3176 C.3     
  13 C13            3.5108     2.1738    -1.3457 C.3     
  14 C14            3.4332     3.6929    -1.1776 C.3     
  15 N15            2.7773     4.0127     0.0968 N.3     
  16 C16            1.4008     3.5022     0.1283 C.3     
  17 N17           -3.6720    -2.0264     0.0316 N.am    
  18 C18            2.8087     5.4582     0.3568 C.3     
  19 C19           -4.2797    -1.6543     1.1650 C.2     
  20 C20           -5.5313    -0.8745     0.8260 C.3     
  21 C21           -5.5418    -0.8604    -0.7162 C.3     
  22 C22           -4.2919    -1.6288    -1.0864 C.2     
  23 C23           -6.7727    -1.5872     1.3664 C.3     
  24 O24           -3.8892    -1.9029     2.2854 O.2     
  25 O25           -3.9154    -1.8548    -2.2163 O.2     
  26 C26            1.9534     6.1825    -0.6846 C.3     
  27 C27            1.9861     7.6880    -0.4137 C.3     
  28 C28            1.1436     8.4014    -1.4396 C.ar    
  29 C29           -0.1997     8.6214    -1.1987 C.ar    
  30 C30           -0.9725     9.2758    -2.1396 C.ar    
  31 C31           -0.4019     9.7105    -3.3213 C.ar    
  32 C32            0.9416     9.4913    -3.5618 C.ar    
  33 C33            1.7154     8.8408    -2.6189 C.ar    
  34 C34           -6.7437    -1.5735     2.8730 C.ar    
  35 C35           -7.3264    -0.5279     3.5650 C.ar    
  36 C36           -7.3012    -0.5130     4.9462 C.ar    
  37 C37           -6.6907    -1.5485     5.6388 C.ar    
  38 C38           -6.1068    -2.5965     4.9421 C.ar    
  39 C39           -6.1396    -2.6095     3.5611 C.ar    
  40 O40           -6.6642    -1.5359     6.9975 O.3     
  41 C41           -6.0185    -2.6347     7.6440 C.3     
  42 H42           -0.5448     1.8089    -0.8731 H       
  43 H43           -0.5278     1.7993     0.9068 H       
  44 H44            0.8894    -2.3549    -0.0198 H       
  45 H45            0.7837    -4.8092    -0.0311 H       
  46 H46           -1.3911    -5.9569    -0.0153 H       
  47 H47           -3.4788    -4.6614     0.0104 H       
  48 H48            1.9708     1.5470     0.8341 H       
  49 H49            2.1491     0.5030    -1.3936 H       
  50 H50            1.5211     1.9860    -2.1543 H       
  51 H51            4.0972     1.7471    -0.5319 H       
  52 H52            3.9837     1.9368    -2.2988 H       
  53 H53            4.4399     4.1108    -1.1828 H       
  54 H54            2.8584     4.1203    -1.9992 H       
  55 H55            0.8355     3.9305    -0.6994 H       
  56 H56            0.9313     3.7816     1.0715 H       
  57 H57            2.4137     5.6568     1.3531 H       
  58 H58            3.8365     5.8161     0.2955 H       
  59 H59           -5.4691     0.1405     1.2185 H       
  60 H60           -6.4313    -1.3611    -1.0984 H       
  61 H61           -5.4847     0.1616    -1.0909 H       
  62 H62           -7.6679    -1.0739     1.0155 H       
  63 H63           -6.7827    -2.6181     1.0125 H       
  64 H64            2.3484     5.9839    -1.6809 H       
  65 H65            0.9257     5.8246    -0.6233 H       
  66 H66            1.5911     7.8865     0.5826 H       
  67 H67            3.0139     8.0459    -0.4751 H       
  68 H68           -0.6454     8.2818    -0.2755 H       
  69 H69           -2.0221     9.4471    -1.9518 H       
  70 H70           -1.0058    10.2211    -4.0568 H       
  71 H71            1.3873     9.8306    -4.4852 H       
  72 H72            2.7650     8.6695    -2.8068 H       
  73 H73           -7.8012     0.2782     3.0254 H       
  74 H74           -7.7561     0.3042     5.4863 H       
  75 H75           -5.6309    -3.4037     5.4791 H       
  76 H76           -5.6852    -3.4251     3.0183 H       
  77 H77           -6.0685    -2.5008     8.7246 H       
  78 H78           -6.5193    -3.5631     7.3693 H       
  79 H79           -4.9753    -2.6783     7.3311 H       
@<TRIPOS>BOND
   1    1    2 1
   2    1   11 1
   3    1   42 1
   4    1   43 1
   5    2    3 1
   6    3    4 1
   7    3    5 2
   8    4    6 ar
   9    4   10 ar
  10    6    7 ar
  11    6   44 1
  12    7    8 ar
  13    7   45 1
  14    8    9 ar
  15    8   46 1
  16    9   10 ar
  17    9   47 1
  18   10   17 1
  19   11   12 1
  20   11   16 1
  21   11   48 1
  22   12   13 1
  23   12   49 1
  24   12   50 1
  25   13   14 1
  26   13   51 1
  27   13   52 1
  28   14   15 1
  29   14   53 1
  30   14   54 1
  31   15   16 1
  32   15   18 1
  33   16   55 1
  34   16   56 1
  35   17   19 am
  36   17   22 am
  37   18   26 1
  38   18   57 1
  39   18   58 1
  40   19   20 1
  41   19   24 2
  42   20   21 1
  43   20   23 1
  44   20   59 1
  45   21   22 1
  46   21   60 1
  47   21   61 1
  48   22   25 2
  49   23   34 1
  50   23   62 1
  51   23   63 1
  52   26   27 1
  53   26   64 1
  54   26   65 1
  55   27   28 1
  56   27   66 1
  57   27   67 1
  58   28   29 ar
  59   28   33 ar
  60   29   30 ar
  61   29   68 1
  62   30   31 ar
  63   30   69 1
  64   31   32 ar
  65   31   70 1
  66   32   33 ar
  67   32   71 1
  68   33   72 1
  69   34   35 ar
  70   34   39 ar
  71   35   36 ar
  72   35   73 1
  73   36   37 ar
  74   36   74 1
  75   37   38 ar
  76   37   40 1
  77   38   39 ar
  78   38   75 1
  79   39   76 1
  80   40   41 1
  81   41   77 1
  82   41   78 1
  83   41   79 1

#	End of record

