#	Name: ASD00190018
#	Creating user name:	WinNT
#	Creation time:	15. 06. 2019 18:33

#	Modifying user name:	WinNT
#	Modification time:	15. 06. 2019 18:33

#	Program:	/corina/corina34_cracker 3.40 0067  02.08.2006

@<TRIPOS>MOLECULE
ASD00190018
  47   50    0    0    0
SMALL
NO_CHARGES


@<TRIPOS>ATOM
   1 C1            -0.0154     1.3889     0.0329 C.ar    
   2 C2             0.0026    -0.0011     0.0114 C.ar    
   3 C3             1.1801    -0.6877    -0.0102 C.ar    
   4 C4             2.3964     0.0123    -0.0114 C.ar    
   5 C5             2.3718     1.4268     0.0100 C.ar    
   6 C6             1.1497     2.1010     0.0324 C.ar    
   7 N7             3.5674    -0.6415    -0.0320 N.ar    
   8 C8             4.7273    -0.0214    -0.0334 C.ar    
   9 C9             4.8189     1.3796    -0.0128 C.ar    
  10 C10            3.6478     2.1440     0.0085 C.ar    
  11 N11            5.8587     2.2833    -0.0080 N.pl3   
  12 C12            5.3154     3.5207     0.0160 C.2     
  13 N13            4.0133     3.4342     0.0255 N.2     
  14 N14            5.8931    -0.7726    -0.0555 N.pl3   
  15 C15            5.8289    -2.1658     0.0437 C.ar    
  16 C16            6.7405    -2.9549    -0.6458 C.ar    
  17 C17            6.6753    -4.3311    -0.5465 C.ar    
  18 C18            5.7028    -4.9243     0.2385 C.ar    
  19 C19            4.7921    -4.1402     0.9275 C.ar    
  20 C20            4.8569    -2.7628     0.8364 C.ar    
  21 Cl21           3.5728    -4.8881     1.9112 Cl      
  22 Cl22           5.6233    -6.6542     0.3599 Cl      
  23 C23            6.0973     4.8089     0.0299 C.3     
  24 C24            5.6449     5.6927    -1.1342 C.3     
  25 C25            6.4387     7.0006    -1.1201 C.3     
  26 C26            5.9862     7.8844    -2.2842 C.3     
  27 C27            6.7800     9.1923    -2.2700 C.3     
  28 H28           -0.9608     1.9110     0.0457 H       
  29 H29           -0.9304    -0.5451     0.0122 H       
  30 H30            1.1769    -1.7676    -0.0261 H       
  31 H31            1.1258     3.1806     0.0492 H       
  32 H32            6.8051     2.0709    -0.0195 H       
  33 H33            6.7528    -0.3315    -0.1396 H       
  34 H34            7.4996    -2.4928    -1.2595 H       
  35 H35            7.3841    -4.9448    -1.0826 H       
  36 H36            4.1469    -2.1514     1.3735 H       
  37 H37            5.9223     5.3301     0.9711 H       
  38 H38            7.1602     4.5899    -0.0719 H       
  39 H39            5.8199     5.1716    -2.0754 H       
  40 H40            4.5820     5.9117    -1.0323 H       
  41 H41            6.2636     7.5217    -0.1788 H       
  42 H42            7.5016     6.7816    -1.2219 H       
  43 H43            6.1613     7.3633    -3.2254 H       
  44 H44            4.9233     8.1034    -2.1823 H       
  45 H45            6.6050     9.7134    -1.3288 H       
  46 H46            7.8429     8.9733    -2.3719 H       
  47 H47            6.4577     9.8219    -3.0994 H       
@<TRIPOS>BOND
   1    1    2 ar
   2    1    6 ar
   3    1   28 1
   4    2    3 ar
   5    2   29 1
   6    3    4 ar
   7    3   30 1
   8    4    5 ar
   9    4    7 ar
  10    5    6 ar
  11    5   10 ar
  12    6   31 1
  13    7    8 ar
  14    8    9 ar
  15    8   14 1
  16    9   10 ar
  17    9   11 1
  18   10   13 1
  19   11   12 1
  20   11   32 1
  21   12   13 2
  22   12   23 1
  23   14   15 1
  24   14   33 1
  25   15   16 ar
  26   15   20 ar
  27   16   17 ar
  28   16   34 1
  29   17   18 ar
  30   17   35 1
  31   18   19 ar
  32   18   22 1
  33   19   20 ar
  34   19   21 1
  35   20   36 1
  36   23   24 1
  37   23   37 1
  38   23   38 1
  39   24   25 1
  40   24   39 1
  41   24   40 1
  42   25   26 1
  43   25   41 1
  44   25   42 1
  45   26   27 1
  46   26   43 1
  47   26   44 1
  48   27   45 1
  49   27   46 1
  50   27   47 1

#	End of record

