#	Name: ASD03910114
#	Creating user name:	WinNT
#	Creation time:	15. 06. 2019 20:47

#	Modifying user name:	WinNT
#	Modification time:	15. 06. 2019 20:47

#	Program:	/corina/corina34_cracker 3.40 0067  02.08.2006

@<TRIPOS>MOLECULE
ASD03910114
  44   45    0    0    0
SMALL
NO_CHARGES


@<TRIPOS>ATOM
   1 C1            -0.0173     1.4248     0.0099 C.3     
   2 O2             2.8133     5.4426     0.0044 O.3     
   3 C3             4.0115     6.0738    -0.0036 C.ar    
   4 C4             4.0655     7.4778     0.0034 C.ar    
   5 C5             5.2996     8.1222    -0.0049 C.ar    
   6 C6             6.4744     7.3680    -0.0202 C.ar    
   7 C7             6.4072     5.9673    -0.0271 C.ar    
   8 C8             5.1870     5.3324    -0.0131 C.ar    
   9 C9             7.7801     8.0413    -0.0295 C.2     
  10 O10            8.8004     7.3857    -0.0428 O.2     
  11 C11            2.8194     8.2661     0.0190 C.2     
  12 O12            1.7435     7.7016     0.0259 O.2     
  13 O13            2.8739     9.6124     0.0258 O.3     
  14 O14            0.0021    -0.0041     0.0020 O.3     
  15 C15           -1.1985    -0.6365     0.0101 C.ar    
  16 C16           -1.2501    -2.0257     0.0031 C.ar    
  17 C17           -2.4661    -2.6713     0.0113 C.ar    
  18 C18           -3.6499    -1.9279     0.0270 C.ar    
  19 C19           -3.5934    -0.5311     0.0344 C.ar    
  20 C20           -2.3732     0.1065     0.0311 C.ar    
  21 C21            1.4181     1.9544    -0.0010 C.3     
  22 C22            1.3973     3.4842     0.0074 C.3     
  23 C23            2.8327     4.0138    -0.0034 C.3     
  24 C24           -4.9546    -2.6152     0.0353 C.2     
  25 O25           -5.0017    -3.8293     0.0284 O.2     
  26 O26           -6.0944    -1.8968     0.0505 O.3     
  27 H27           -0.5445     1.7859    -0.8732 H       
  28 H28           -0.5275     1.7763     0.9067 H       
  29 H29            5.3479     9.2011     0.0001 H       
  30 H30            7.3167     5.3850    -0.0389 H       
  31 H31            5.1422     4.2533    -0.0137 H       
  32 H32            7.8314     9.1201    -0.0246 H       
  33 H33            2.0308    10.0858     0.0360 H       
  34 H34           -0.3351    -2.5993    -0.0091 H       
  35 H35           -2.5054    -3.7506     0.0051 H       
  36 H36           -4.5056     0.0469     0.0463 H       
  37 H37           -2.3286     1.1856     0.0410 H       
  38 H38            1.9453     1.5933     0.8821 H       
  39 H39            1.9283     1.6028    -0.8978 H       
  40 H40            0.8701     3.8453    -0.8756 H       
  41 H41            0.8871     3.8357     0.9042 H       
  42 H42            3.3429     3.6623    -0.9002 H       
  43 H43            3.3599     3.6527     0.8796 H       
  44 H44           -6.9252    -2.3916     0.0554 H       
@<TRIPOS>BOND
   1    1   14 1
   2    1   21 1
   3    1   27 1
   4    1   28 1
   5    2    3 1
   6    2   23 1
   7    3    4 ar
   8    3    8 ar
   9    4    5 ar
  10    4   11 1
  11    5    6 ar
  12    5   29 1
  13    6    7 ar
  14    6    9 1
  15    7    8 ar
  16    7   30 1
  17    8   31 1
  18    9   10 2
  19    9   32 1
  20   11   12 2
  21   11   13 1
  22   13   33 1
  23   14   15 1
  24   15   16 ar
  25   15   20 ar
  26   16   17 ar
  27   16   34 1
  28   17   18 ar
  29   17   35 1
  30   18   19 ar
  31   18   24 1
  32   19   20 ar
  33   19   36 1
  34   20   37 1
  35   21   22 1
  36   21   38 1
  37   21   39 1
  38   22   23 1
  39   22   40 1
  40   22   41 1
  41   23   42 1
  42   23   43 1
  43   24   25 2
  44   24   26 1
  45   26   44 1

#	End of record

