#	Name: ASD02408020
#	Creating user name:	WinNT
#	Creation time:	15. 06. 2019 20:21

#	Modifying user name:	WinNT
#	Modification time:	15. 06. 2019 20:21

#	Program:	/corina/corina34_cracker 3.40 0067  02.08.2006

@<TRIPOS>MOLECULE
ASD02408020
  37   39    0    0    0
SMALL
NO_CHARGES


@<TRIPOS>ATOM
   1 C1             0.2815     0.9365    -0.0207 C.ar    
   2 C2             0.4448    -0.4294    -0.1523 C.ar    
   3 C3             1.4857     1.8426    -0.0201 C.3     
   4 C4             1.7937     2.2696    -1.4322 C.2     
   5 N5             2.8410     3.0880    -1.6512 N.am    
   6 N6             1.0399     1.8297    -2.4030 N.2     
   7 C7             1.2664     2.1753    -3.6768 C.2     
   8 C8             2.3396     3.0308    -3.9762 C.2     
   9 C9             3.1459     3.4898    -2.9030 C.2     
  10 N10            0.4585     1.6982    -4.6796 N.pl3   
  11 O11            4.0898     4.2338    -3.1064 O.2     
  12 C12           -0.6610    -1.2612    -0.1532 C.ar    
  13 C13           -1.9294    -0.7249    -0.0223 C.ar    
  14 C14           -2.0915     0.6417     0.1093 C.ar    
  15 C15           -0.9869     1.4725     0.1048 C.ar    
  16 Cl16          -0.4567    -2.9771    -0.3190 Cl      
  17 C17           -0.9805     1.4212    -4.5618 C.3     
  18 C18           -1.4560     0.8793    -5.9263 C.3     
  19 C19           -0.1455     0.3483    -6.5651 C.3     
  20 C20            0.8893     1.3850    -6.0542 C.3     
  21 C21            2.6149     3.4236    -5.3255 C.1     
  22 N22            2.8333     3.7352    -6.3958 N.1     
  23 H23            1.4353    -0.8475    -0.2547 H       
  24 H24            1.2778     2.7227     0.5884 H       
  25 H25            2.3416     1.3091     0.3930 H       
  26 H26            3.3798     3.3909    -0.9037 H       
  27 H27           -2.7929    -1.3735    -0.0233 H       
  28 H28           -3.0817     1.0605     0.2114 H       
  29 H29           -1.1139     2.5400     0.2080 H       
  30 H30           -1.1521     0.6746    -3.7863 H       
  31 H31           -1.5162     2.3392    -4.3205 H       
  32 H32           -2.1743     0.0707    -5.7911 H       
  33 H33           -1.8833     1.6791    -6.5312 H       
  34 H34            0.0879    -0.6529    -6.2028 H       
  35 H35           -0.2070     0.3639    -7.6532 H       
  36 H36            0.8692     2.2794    -6.6768 H       
  37 H37            1.8889     0.9504    -6.0452 H       
@<TRIPOS>BOND
   1    1    2 ar
   2    1    3 1
   3    1   15 ar
   4    2   12 ar
   5    2   23 1
   6    3    4 1
   7    3   24 1
   8    3   25 1
   9    4    5 1
  10    4    6 2
  11    5    9 am
  12    5   26 1
  13    6    7 1
  14    7    8 2
  15    7   10 1
  16    8    9 1
  17    8   21 1
  18    9   11 2
  19   10   17 1
  20   10   20 1
  21   12   13 ar
  22   12   16 1
  23   13   14 ar
  24   13   27 1
  25   14   15 ar
  26   14   28 1
  27   15   29 1
  28   17   18 1
  29   17   30 1
  30   17   31 1
  31   18   19 1
  32   18   32 1
  33   18   33 1
  34   19   20 1
  35   19   34 1
  36   19   35 1
  37   20   36 1
  38   20   37 1
  39   21   22 3

#	End of record

