#	Name: ASD00843788
#	Creating user name:	WinNT
#	Creation time:	15. 06. 2019 18:47

#	Modifying user name:	WinNT
#	Modification time:	15. 06. 2019 18:47

#	Program:	/corina/corina34_cracker 3.40 0067  02.08.2006

@<TRIPOS>MOLECULE
ASD00843788
  83   88    0    0    0
SMALL
NO_CHARGES


@<TRIPOS>ATOM
   1 N1            -0.0159     1.3183     0.0093 N.ar    
   2 C2             0.0021    -0.0041     0.0020 C.ar    
   3 C3             1.2069    -0.6955    -0.0132 C.ar    
   4 C4             2.3925     0.0180    -0.0207 C.ar    
   5 C5             2.3308     1.4049    -0.0127 C.ar    
   6 C6             1.0980     2.0259     0.0025 C.ar    
   7 C7             1.2224    -2.2024    -0.0209 C.3     
   8 C8             0.4764    -2.7346    -1.2259 C.2     
   9 O9             2.5879    -2.6961    -0.0089 O.3     
  10 C10            3.3819    -2.3225    -1.0300 C.2     
  11 N11            4.6605    -2.7459    -1.0791 N.am    
  12 O12            2.9459    -1.6036    -1.9072 O.2     
  13 C13            5.5450    -2.3497    -2.1855 C.3     
  14 C14            6.8416    -1.7863    -1.5942 C.3     
  15 N15            7.4154    -2.7640    -0.6600 N.3     
  16 C16            6.5183    -3.0033     0.4784 C.3     
  17 C17            5.2101    -3.6115    -0.0246 C.3     
  18 C18            8.7445    -2.3376    -0.2023 C.3     
  19 C19            9.2568    -3.3130     0.8610 C.3     
  20 C20           10.6663    -2.8987     1.2897 C.3     
  21 N21           11.5568    -2.9074     0.1221 N.3     
  22 C22           11.1114    -1.9438    -0.8926 C.3     
  23 C23            9.7153    -2.3297    -1.3864 C.3     
  24 H24           12.5120    -2.7300     0.3945 H       
  25 O25            0.7568    -2.5406    -2.3898 O.2     
  26 N26           -0.5539    -3.4626    -0.7644 N.am    
  27 C27            0.4487    -2.7464     1.1585 C.ar    
  28 C28           -0.6011    -3.4915     0.6265 C.ar    
  29 C29            0.6132    -2.6250     2.5150 C.ar    
  30 C30           -0.2835    -3.2566     3.3842 C.ar    
  31 C31           -1.3412    -4.0072     2.8566 C.ar    
  32 C32           -1.4949    -4.1227     1.4917 C.ar    
  33 F33           -2.2122    -4.6208     3.6873 F       
  34 C34           -1.0164    -5.8557    -2.0426 C.ar    
  35 C35           -1.3479    -6.8950    -1.1930 C.ar    
  36 C36           -0.1973    -6.0851    -3.1326 C.ar    
  37 C37            0.2921    -7.3540    -3.3754 C.ar    
  38 C38           -0.0390    -8.3984    -2.5244 C.ar    
  39 C39           -0.8607    -8.1655    -1.4312 C.ar    
  40 O40            0.4408    -9.6476    -2.7613 O.3     
  41 H41           -1.9879    -6.7132    -0.3423 H       
  42 C42            0.0587   -10.6742    -1.8437 C.3     
  43 O43           -1.1673    -0.6919     0.0099 O.3     
  44 C44           -2.3720     0.0766     0.0260 C.3     
  45 C45           -3.5777    -0.8652     0.0330 C.3     
  46 F46           -3.5507    -1.6659    -1.1140 F       
  47 F47           -3.5280    -1.6782     1.1704 F       
  48 C48           -0.1204    -3.1366     4.8018 C.1     
  49 N49            0.0090    -3.0413     5.9263 N.1     
  50 S50           -1.6449    -4.2377    -1.7399 S.o2    
  51 O51           -2.8262    -4.4040    -0.9678 O.2     
  52 O52           -1.6212    -3.5580    -2.9876 O.2     
  53 H53            3.3442    -0.4925    -0.0322 H       
  54 H54            3.2375     1.9916    -0.0178 H       
  55 H55            1.0444     3.1046     0.0084 H       
  56 H56            5.7714    -3.2192    -2.8026 H       
  57 H57            5.0558    -1.5857    -2.7897 H       
  58 H58            7.5522    -1.5900    -2.3971 H       
  59 H59            6.6265    -0.8589    -1.0635 H       
  60 H60            6.9944    -3.6895     1.1788 H       
  61 H61            6.3077    -2.0589     0.9803 H       
  62 H62            4.4997    -3.6844     0.7988 H       
  63 H63            5.4015    -4.6028    -0.4356 H       
  64 H64            8.6793    -1.3362     0.2232 H       
  65 H65            8.5926    -3.2914     1.7250 H       
  66 H66            9.2839    -4.3211     0.4473 H       
  67 H67           10.6362    -1.8959     1.7160 H       
  68 H68           11.0396    -3.5995     2.0364 H       
  69 H69           11.0792    -0.9455    -0.4561 H       
  70 H70           11.8080    -1.9511    -1.7309 H       
  71 H71            9.7496    -3.3222    -1.8355 H       
  72 H72            9.3785    -1.6054    -2.1281 H       
  73 H73            1.4328    -2.0439     2.9111 H       
  74 H74           -2.3125    -4.7030     1.0901 H       
  75 H75            0.0599    -5.2718    -3.7950 H       
  76 H76            0.9316    -7.5328    -4.2271 H       
  77 H77           -1.1202    -8.9770    -0.7675 H       
  78 H78            0.4027   -10.4133    -0.8428 H       
  79 H79           -1.0268   -10.7731    -1.8405 H       
  80 H80            0.5088   -11.6193    -2.1477 H       
  81 H81           -2.3931     0.7004     0.9196 H       
  82 H82           -2.4108     0.7099    -0.8602 H       
  83 H83           -4.4966    -0.2790     0.0452 H       
@<TRIPOS>BOND
   1    1    2 ar
   2    1    6 ar
   3    2    3 ar
   4    2   43 1
   5    3    4 ar
   6    3    7 1
   7    4    5 ar
   8    4   53 1
   9    5    6 ar
  10    5   54 1
  11    6   55 1
  12    7    8 1
  13    7    9 1
  14    7   27 1
  15    8   25 2
  16    8   26 am
  17    9   10 1
  18   10   11 am
  19   10   12 2
  20   11   13 1
  21   11   17 1
  22   13   14 1
  23   13   56 1
  24   13   57 1
  25   14   15 1
  26   14   58 1
  27   14   59 1
  28   15   16 1
  29   15   18 1
  30   16   17 1
  31   16   60 1
  32   16   61 1
  33   17   62 1
  34   17   63 1
  35   18   19 1
  36   18   23 1
  37   18   64 1
  38   19   20 1
  39   19   65 1
  40   19   66 1
  41   20   21 1
  42   20   67 1
  43   20   68 1
  44   21   22 1
  45   21   24 1
  46   22   23 1
  47   22   69 1
  48   22   70 1
  49   23   71 1
  50   23   72 1
  51   26   50 am
  52   26   28 1
  53   27   28 ar
  54   27   29 ar
  55   28   32 ar
  56   29   30 ar
  57   29   73 1
  58   30   31 ar
  59   30   48 1
  60   31   32 ar
  61   31   33 1
  62   32   74 1
  63   34   35 ar
  64   34   36 ar
  65   34   50 1
  66   35   41 1
  67   35   39 ar
  68   36   37 ar
  69   36   75 1
  70   37   38 ar
  71   37   76 1
  72   38   39 ar
  73   38   40 1
  74   39   77 1
  75   40   42 1
  76   42   78 1
  77   42   79 1
  78   42   80 1
  79   43   44 1
  80   44   45 1
  81   44   81 1
  82   44   82 1
  83   45   46 1
  84   45   47 1
  85   45   83 1
  86   48   49 3
  87   50   51 2
  88   50   52 2

#	End of record

