#	Name: ASD01230070
#	Creating user name:	WinNT
#	Creation time:	15. 06. 2019 19:11

#	Modifying user name:	WinNT
#	Modification time:	15. 06. 2019 19:11

#	Program:	/corina/corina34_cracker 3.40 0067  02.08.2006

@<TRIPOS>MOLECULE
ASD01230070
  45   48    0    0    0
SMALL
NO_CHARGES


@<TRIPOS>ATOM
   1 C1            -0.0167     1.3791     0.0096 C.ar    
   2 C2             0.0021    -0.0041     0.0020 C.ar    
   3 C3             1.2063    -0.6846    -0.0127 C.ar    
   4 C4             2.3966     0.0138    -0.0202 C.ar    
   5 C5             2.3837     1.4075    -0.0131 C.ar    
   6 C6             1.1674     2.0879     0.0021 C.ar    
   7 C7             3.6596     2.1636    -0.0207 C.ar    
   8 N8             4.8248     1.5222    -0.0344 N.ar    
   9 C9             5.9649     2.1950    -0.0411 C.ar    
  10 N10            5.9920     3.5202    -0.0342 N.ar    
  11 C11            4.8725     4.2241    -0.0206 C.ar    
  12 C12            3.6562     3.5618    -0.0194 C.ar    
  13 C13            4.9197     5.7303    -0.0129 C.3     
  14 C14            7.2469     1.4454    -0.0564 C.ar    
  15 N15            7.2513     0.1161    -0.0632 N.ar    
  16 C16            8.4665     2.1266    -0.0697 C.ar    
  17 C17            9.6369     1.3844    -0.0842 C.ar    
  18 N18            9.5650     0.0644    -0.0849 N.ar    
  19 C19            8.3927    -0.5548    -0.0773 C.ar    
  20 C20            8.3590    -2.0388    -0.0785 C.ar    
  21 C21            9.5393    -2.7812    -0.0875 C.ar    
  22 C22            9.4615    -4.1687    -0.0879 C.ar    
  23 N23            8.2869    -4.7799    -0.0801 N.ar    
  24 C24            7.1512    -4.1081    -0.0714 C.ar    
  25 C25            7.1423    -2.7291    -0.0646 C.ar    
  26 N26           10.6293    -4.9231    -0.0969 N.pl3   
  27 C27           -1.2943    -0.7724     0.0102 C.3     
  28 F28           -1.7081    -1.0031    -1.3061 F       
  29 F29           -1.1069    -1.9963     0.6614 F       
  30 F30           -2.2715    -0.0311     0.6831 F       
  31 H31           -0.9598     1.9053     0.0169 H       
  32 H32            1.2150    -1.7646    -0.0178 H       
  33 H33            3.3362    -0.5186    -0.0313 H       
  34 H34            1.1516     3.1678     0.0074 H       
  35 H35            2.7271     4.1123    -0.0088 H       
  36 H36            4.9222     6.0990    -1.0386 H       
  37 H37            4.0461     6.1185     0.5107 H       
  38 H38            5.8251     6.0628     0.4949 H       
  39 H39            8.4966     3.2062    -0.0691 H       
  40 H40           10.5969     1.8790    -0.0950 H       
  41 H41           10.4989    -2.2856    -0.0946 H       
  42 H42            6.2148    -4.6463    -0.0653 H       
  43 H43            6.2073    -2.1885    -0.0575 H       
  44 H44           11.4925    -4.4806    -0.1029 H       
  45 H45           10.5809    -5.8919    -0.0971 H       
@<TRIPOS>BOND
   1    1    2 ar
   2    1    6 ar
   3    1   31 1
   4    2   27 1
   5    2    3 ar
   6    3    4 ar
   7    3   32 1
   8    4    5 ar
   9    4   33 1
  10    5    6 ar
  11    5    7 1
  12    6   34 1
  13    7    8 ar
  14    7   12 ar
  15    8    9 ar
  16    9   10 ar
  17    9   14 1
  18   10   11 ar
  19   11   12 ar
  20   11   13 1
  21   12   35 1
  22   13   36 1
  23   13   37 1
  24   13   38 1
  25   14   15 ar
  26   14   16 ar
  27   15   19 ar
  28   16   17 ar
  29   16   39 1
  30   17   18 ar
  31   17   40 1
  32   18   19 ar
  33   19   20 1
  34   20   21 ar
  35   20   25 ar
  36   21   22 ar
  37   21   41 1
  38   22   23 ar
  39   22   26 1
  40   23   24 ar
  41   24   25 ar
  42   24   42 1
  43   25   43 1
  44   26   44 1
  45   26   45 1
  46   27   28 1
  47   27   29 1
  48   27   30 1

#	End of record

