#	Name: ASD01200271
#	Creating user name:	WinNT
#	Creation time:	15. 06. 2019 19:08

#	Modifying user name:	WinNT
#	Modification time:	15. 06. 2019 19:08

#	Program:	/corina/corina34_cracker 3.40 0067  02.08.2006

@<TRIPOS>MOLECULE
ASD01200271
  47   49    0    0    0
SMALL
NO_CHARGES


@<TRIPOS>ATOM
   1 C1             0.0131     2.0051     0.3208 C.ar    
   2 C2            -0.1854     0.7187    -0.1732 C.ar    
   3 C3             0.9110    -0.0248    -0.5857 C.ar    
   4 C4             2.1691     0.5429    -0.4904 C.ar    
   5 C5             2.2976     1.8360     0.0137 C.ar    
   6 N6             1.2355     2.5190     0.3984 N.ar    
   7 C7            -1.1499     2.8102     0.7582 C.2     
   8 O8            -2.2704     2.3479     0.6851 O.2     
   9 O9            -0.9651     4.0554     1.2371 O.3     
  10 C10            4.6629     1.6379     0.0782 C.2     
  11 C11            6.0307     2.2702     0.0589 C.3     
  12 C12            6.2210     3.0340    -1.2530 C.3     
  13 O13            4.5529     0.4302     0.0628 O.2     
  14 N14            3.5619     2.4145     0.1127 N.am    
  15 C15            7.2453     0.2000    -0.6873 C.2     
  16 N16            8.2465    -0.5195    -0.2595 N.2     
  17 C17            8.7240     0.0163     0.8736 C.2     
  18 C18            7.9910     1.1094     1.1588 C.2     
  19 N19            7.0528     1.2264     0.1689 N.pl3   
  20 C20            9.8783    -0.5125     1.6855 C.3     
  21 F21           10.4612    -1.5947     1.0175 F       
  22 F22           10.8305     0.4983     1.8557 F       
  23 F23            9.4146    -0.9318     2.9371 F       
  24 C24            7.5555     3.7816    -1.2190 C.3     
  25 C25            7.8202     4.4498    -2.5796 C.3     
  26 C26            7.9158     5.9665    -2.3145 C.3     
  27 C27            8.3102     6.0668    -0.8201 C.3     
  28 C28            7.4995     4.9156    -0.1746 C.3     
  29 H29           -1.1809     0.3043    -0.2343 H       
  30 H30            0.7852    -1.0253    -0.9725 H       
  31 H31            3.0425    -0.0103    -0.8029 H       
  32 H32           -1.7547     4.5423     1.5102 H       
  33 H33            6.1240     2.9599     0.8978 H       
  34 H34            6.2193     2.3312    -2.0862 H       
  35 H35            5.4074     3.7485    -1.3788 H       
  36 H36            3.6494     3.3760     0.2063 H       
  37 H37            6.6692     0.0089    -1.5805 H       
  38 H38            8.1186     1.7671     2.0059 H       
  39 H39            8.3639     3.0911    -0.9786 H       
  40 H40            8.7575     4.0842    -2.9991 H       
  41 H41            6.9979     4.2415    -3.2641 H       
  42 H42            8.6847     6.4158    -2.9430 H       
  43 H43            6.9522     6.4455    -2.4878 H       
  44 H44            9.3804     5.9050    -0.6913 H       
  45 H45            8.0113     7.0295    -0.4054 H       
  46 H46            6.4686     5.2249    -0.0023 H       
  47 H47            7.9646     4.5980     0.7586 H       
@<TRIPOS>BOND
   1    1    2 ar
   2    1    6 ar
   3    1    7 1
   4    2    3 ar
   5    2   29 1
   6    3    4 ar
   7    3   30 1
   8    4    5 ar
   9    4   31 1
  10    5    6 ar
  11    5   14 1
  12    7    8 2
  13    7    9 1
  14    9   32 1
  15   10   11 1
  16   10   13 2
  17   10   14 am
  18   11   12 1
  19   11   19 1
  20   11   33 1
  21   12   24 1
  22   12   34 1
  23   12   35 1
  24   14   36 1
  25   15   16 2
  26   15   19 1
  27   15   37 1
  28   16   17 1
  29   17   18 2
  30   17   20 1
  31   18   19 1
  32   18   38 1
  33   20   21 1
  34   20   22 1
  35   20   23 1
  36   24   25 1
  37   24   28 1
  38   24   39 1
  39   25   26 1
  40   25   40 1
  41   25   41 1
  42   26   27 1
  43   26   42 1
  44   26   43 1
  45   27   28 1
  46   27   44 1
  47   27   45 1
  48   28   46 1
  49   28   47 1

#	End of record

