#	Name: ASD06170204
#	Creating user name:	WinNT
#	Creation time:	15. 06. 2019 21:05

#	Modifying user name:	WinNT
#	Modification time:	15. 06. 2019 21:05

#	Program:	/corina/corina34_cracker 3.40 0067  02.08.2006

@<TRIPOS>MOLECULE
ASD06170204
  87   92    0    0    0
SMALL
NO_CHARGES


@<TRIPOS>ATOM
   1 C1             4.9072    -0.1783    -2.6063 C.3     
   2 C2             3.8749    -0.9739    -1.8569 C.2     
   3 C3             3.9299    -2.2759    -1.7145 C.2     
   4 C4             5.0273    -3.1419    -2.2580 C.3     
   5 C5             5.7891    -2.4070    -3.3639 C.3     
   6 N6             6.0641    -1.0383    -2.8935 N.am    
   7 C7             7.3259    -0.5927    -2.7328 C.2     
   8 O8             8.2645    -1.3245    -2.9774 O.2     
   9 O9             7.5463     0.6635    -2.3013 O.3     
  10 C10            1.5334    -2.8325    -1.4116 C.2     
  11 C11            2.8371    -2.9348    -0.9676 C.2     
  12 C12            3.1208    -3.6693     0.1984 C.2     
  13 C13            2.0724    -4.2786     0.8797 C.2     
  14 C14            0.7518    -4.1414     0.3797 C.2     
  15 N15            0.5213    -3.4304    -0.7392 N.am    
  16 C16           -0.7889    -3.3066    -1.2171 C.ar    
  17 C17           -1.2996    -4.2492    -2.0999 C.ar    
  18 C18           -2.5924    -4.1241    -2.5695 C.ar    
  19 C19           -3.3781    -3.0618    -2.1615 C.ar    
  20 C20           -2.8724    -2.1213    -1.2828 C.ar    
  21 C21           -1.5825    -2.2441    -0.8048 C.ar    
  22 O22           -0.1771    -4.6698     0.9655 O.2     
  23 C23            2.3295    -5.0552     2.1021 C.2     
  24 N24            1.2981    -5.5214     2.8337 N.am    
  25 O25            3.4731    -5.2766     2.4528 O.2     
  26 C26            1.5388    -6.3469     3.9318 C.ar    
  27 C27            2.8047    -6.3750     4.5065 C.ar    
  28 C28            3.0324    -7.1969     5.5953 C.ar    
  29 C29            1.9775    -7.9689     6.0761 C.ar    
  30 C30            0.7426    -7.8894     5.4526 C.ar    
  31 N31            0.5587    -7.0907     4.4187 N.ar    
  32 O32            2.1574    -8.7909     7.1440 O.3     
  33 N33            0.7068    -7.5337    10.7945 N.ar    
  34 C34            0.5109    -6.8058     9.7202 C.ar    
  35 C35            0.9845    -7.1966     8.4742 C.ar    
  36 C36            1.6838    -8.3839     8.3475 C.ar    
  37 C37            1.8887    -9.1595     9.5108 C.ar    
  38 C38            2.5885   -10.3744     9.4615 C.ar    
  39 C39            2.7682   -11.0973    10.6053 C.ar    
  40 C40            2.2599   -10.6380    11.8287 C.ar    
  41 C41            1.5749    -9.4596    11.9046 C.ar    
  42 C42            1.3745    -8.6926    10.7450 C.ar    
  43 O43            2.4513   -11.3758    12.9536 O.3     
  44 C44            1.9104   -10.8564    14.1700 C.3     
  45 O45            3.4465   -12.2749    10.5577 O.3     
  46 C46            3.9390   -12.6888     9.2818 C.3     
  47 C47            8.9305     1.0756    -2.1513 C.3     
  48 C48            9.6420     0.9741    -3.5020 C.3     
  49 C49            8.9811     2.5222    -1.6556 C.3     
  50 C50            9.6269     0.1647    -1.1383 C.3     
  51 H51            4.4803     0.1825    -3.5421 H       
  52 H52            5.2252     0.6693    -1.9992 H       
  53 H53            3.0447    -0.4451    -1.4123 H       
  54 H54            5.7170    -3.3972    -1.4535 H       
  55 H55            4.5967    -4.0573    -2.6639 H       
  56 H56            6.7277    -2.9216    -3.5696 H       
  57 H57            5.1819    -2.3708    -4.2683 H       
  58 H58            1.3176    -2.2644    -2.3044 H       
  59 H59            4.1352    -3.7588     0.5580 H       
  60 H60           -0.6864    -5.0788    -2.4192 H       
  61 H61           -2.9900    -4.8566    -3.2564 H       
  62 H62           -4.3887    -2.9663    -2.5301 H       
  63 H63           -3.4884    -1.2926    -0.9663 H       
  64 H64           -1.1897    -1.5119    -0.1148 H       
  65 H65            0.3883    -5.2828     2.5966 H       
  66 H66            3.6001    -5.7630     4.1074 H       
  67 H67            4.0056    -7.2393     6.0617 H       
  68 H68           -0.0800    -8.4851     5.8198 H       
  69 H69           -0.0339    -5.8774     9.8073 H       
  70 H70            0.8073    -6.5765     7.6078 H       
  71 H71            2.9828   -10.7359     8.5233 H       
  72 H72            1.1882    -9.1181    12.8534 H       
  73 H73            2.3547    -9.8832    14.3789 H       
  74 H74            0.8302   -10.7488    14.0706 H       
  75 H75            2.1335   -11.5409    14.9884 H       
  76 H76            3.1046   -12.8033     8.5899 H       
  77 H77            4.6291   -11.9376     8.8976 H       
  78 H78            4.4591   -13.6412     9.3846 H       
  79 H79            9.1458     1.6231    -4.2237 H       
  80 H80           10.6811     1.2835    -3.3894 H       
  81 H81            9.6060    -0.0564    -3.8551 H       
  82 H82            8.4742     2.5945    -0.6934 H       
  83 H83           10.0202     2.8316    -1.5431 H       
  84 H84            8.4849     3.1711    -2.3773 H       
  85 H85            9.5909    -0.8658    -1.4914 H       
  86 H86           10.6660     0.4741    -1.0257 H       
  87 H87            9.1200     0.2370    -0.1761 H       
@<TRIPOS>BOND
   1    1    2 1
   2    1    6 1
   3    1   51 1
   4    1   52 1
   5    2    3 2
   6    2   53 1
   7    3    4 1
   8    3   11 1
   9    4    5 1
  10    4   54 1
  11    4   55 1
  12    5    6 1
  13    5   56 1
  14    5   57 1
  15    6    7 am
  16    7    8 2
  17    7    9 1
  18    9   47 1
  19   10   11 2
  20   10   15 1
  21   10   58 1
  22   11   12 1
  23   12   13 2
  24   12   59 1
  25   13   14 1
  26   13   23 1
  27   14   15 am
  28   14   22 2
  29   15   16 1
  30   16   17 ar
  31   16   21 ar
  32   17   18 ar
  33   17   60 1
  34   18   19 ar
  35   18   61 1
  36   19   20 ar
  37   19   62 1
  38   20   21 ar
  39   20   63 1
  40   21   64 1
  41   23   24 am
  42   23   25 2
  43   24   26 1
  44   24   65 1
  45   26   27 ar
  46   26   31 ar
  47   27   28 ar
  48   27   66 1
  49   28   29 ar
  50   28   67 1
  51   29   30 ar
  52   29   32 1
  53   30   31 ar
  54   30   68 1
  55   32   36 1
  56   33   34 ar
  57   33   42 ar
  58   34   35 ar
  59   34   69 1
  60   35   36 ar
  61   35   70 1
  62   36   37 ar
  63   37   38 ar
  64   37   42 ar
  65   38   39 ar
  66   38   71 1
  67   39   40 ar
  68   39   45 1
  69   40   41 ar
  70   40   43 1
  71   41   42 ar
  72   41   72 1
  73   43   44 1
  74   44   73 1
  75   44   74 1
  76   44   75 1
  77   45   46 1
  78   46   76 1
  79   46   77 1
  80   46   78 1
  81   47   48 1
  82   47   50 1
  83   47   49 1
  84   48   79 1
  85   48   80 1
  86   48   81 1
  87   49   82 1
  88   49   83 1
  89   49   84 1
  90   50   85 1
  91   50   86 1
  92   50   87 1

#	End of record

