#	Name: ASD04882010
#	Creating user name:	WinNT
#	Creation time:	15. 06. 2019 20:53

#	Modifying user name:	WinNT
#	Modification time:	15. 06. 2019 20:53

#	Program:	/corina/corina34_cracker 3.40 0067  02.08.2006

@<TRIPOS>MOLECULE
ASD04882010
  77   81    0    0    0
SMALL
NO_CHARGES


@<TRIPOS>ATOM
   1 C1            -0.7145     2.6799     2.0386 C.ar    
   2 C2            -0.7537     1.3041     1.9069 C.ar    
   3 C3             0.4212     0.5833     1.7933 C.ar    
   4 C4             1.6379     1.2360     1.8111 C.ar    
   5 C5             1.6810     2.6183     1.9433 C.ar    
   6 C6             0.4992     3.3391     2.0571 C.ar    
   7 C7             0.5410     4.8386     2.2007 C.3     
   8 N8             2.9100     3.2817     1.9622 N.3     
   9 C9             3.0754     4.1180     0.7652 C.3     
  10 C10            4.3951     4.8871     0.8619 C.3     
  11 N11            5.5061     3.9340     0.9925 N.3     
  12 C12            5.3407     3.0976     2.1895 C.3     
  13 C13            4.0209     2.3286     2.0928 C.3     
  14 C14            6.7314     4.5954     1.0113 C.ar    
  15 C15            7.5068     4.5871     2.1646 C.ar    
  16 C16            8.7196     5.2400     2.1876 C.ar    
  17 C17            9.1738     5.9130     1.0504 C.ar    
  18 C18            8.3959     5.9226    -0.1112 C.ar    
  19 C19            7.1825     5.2619    -0.1318 C.ar    
  20 N20            6.4000     5.2690    -1.2938 N.am    
  21 C21            6.5099     6.2837    -2.1741 C.2     
  22 C22            5.6250     6.3403    -3.3419 C.2     
  23 O23            7.3437     7.1531    -1.9996 O.2     
  24 O24            4.6631     5.4465    -3.6517 O.3     
  25 C25            5.6261     7.3101    -4.3033 C.2     
  26 C26            4.6224     6.9679    -5.2229 C.2     
  27 C27            4.0575     5.8206    -4.7863 C.2     
  28 C28            6.5296     8.5147    -4.3648 C.3     
  29 C29           10.4722     6.6130     1.0756 C.2     
  30 N30           11.2212     6.6037     2.1961 N.am    
  31 O31           10.8667     7.1984     0.0855 O.2     
  32 C32           12.5105     7.2988     2.2211 C.3     
  33 C33           13.1521     7.1340     3.6003 C.3     
  34 C34           14.4986     7.8600     3.6265 C.3     
  35 N35           15.1129     7.7022     4.9471 N.am    
  36 C36           15.9369     6.6954     5.2849 C.2     
  37 C37           14.9126     8.6266     6.0693 C.3     
  38 C38           15.3690     7.8536     7.3265 C.3     
  39 C39           16.3742     6.8420     6.7257 C.3     
  40 O40           16.2794     5.7993     4.5428 O.2     
  41 H41           -1.6339     3.2402     2.1226 H       
  42 H42           -1.7040     0.7911     1.8931 H       
  43 H43            0.3870    -0.4913     1.6910 H       
  44 H44            2.5550     0.6725     1.7227 H       
  45 H45            0.5910     5.2970     1.2130 H       
  46 H46           -0.3577     5.1797     2.7145 H       
  47 H47            1.4202     5.1239     2.7785 H       
  48 H48            3.0877     3.4849    -0.1220 H       
  49 H49            2.2474     4.8237     0.6974 H       
  50 H50            4.5338     5.4861    -0.0382 H       
  51 H51            4.3722     5.5406     1.7340 H       
  52 H52            6.1686     2.3920     2.2573 H       
  53 H53            5.3284     3.7308     3.0767 H       
  54 H54            3.8823     1.7296     2.9929 H       
  55 H55            4.0439     1.6751     1.2207 H       
  56 H56            7.1577     4.0679     3.0449 H       
  57 H57            9.3198     5.2321     3.0855 H       
  58 H58            8.7442     6.4422    -0.9916 H       
  59 H59            5.7790     4.5437    -1.4649 H       
  60 H60            4.3509     7.5192    -6.1109 H       
  61 H61            3.2506     5.2922    -5.2723 H       
  62 H62            7.4311     8.2645    -4.9241 H       
  63 H63            6.0096     9.3339    -4.8613 H       
  64 H64            6.8016     8.8168    -3.3534 H       
  65 H65           10.9065     6.1367     2.9859 H       
  66 H66           13.1672     6.8739     1.4619 H       
  67 H67           12.3562     8.3582     2.0164 H       
  68 H68           12.4954     7.5589     4.3595 H       
  69 H69           13.3064     6.0746     3.8050 H       
  70 H70           15.1552     7.4351     2.8672 H       
  71 H71           14.3443     8.9194     3.4218 H       
  72 H72           15.5212     9.5208     5.9347 H       
  73 H73           13.8596     8.8953     6.1533 H       
  74 H74           15.8633     8.5182     8.0350 H       
  75 H75           14.5292     7.3409     7.7955 H       
  76 H76           16.3083     5.8853     7.2437 H       
  77 H77           17.3891     7.2361     6.7778 H       
@<TRIPOS>BOND
   1    1    2 ar
   2    1    6 ar
   3    1   41 1
   4    2    3 ar
   5    2   42 1
   6    3    4 ar
   7    3   43 1
   8    4    5 ar
   9    4   44 1
  10    5    6 ar
  11    5    8 1
  12    6    7 1
  13    7   45 1
  14    7   46 1
  15    7   47 1
  16    8    9 1
  17    8   13 1
  18    9   10 1
  19    9   48 1
  20    9   49 1
  21   10   11 1
  22   10   50 1
  23   10   51 1
  24   11   12 1
  25   11   14 1
  26   12   13 1
  27   12   52 1
  28   12   53 1
  29   13   54 1
  30   13   55 1
  31   14   15 ar
  32   14   19 ar
  33   15   16 ar
  34   15   56 1
  35   16   17 ar
  36   16   57 1
  37   17   18 ar
  38   17   29 1
  39   18   19 ar
  40   18   58 1
  41   19   20 1
  42   20   21 am
  43   20   59 1
  44   21   22 1
  45   21   23 2
  46   22   24 1
  47   22   25 2
  48   24   27 1
  49   25   26 1
  50   25   28 1
  51   26   27 2
  52   26   60 1
  53   27   61 1
  54   28   62 1
  55   28   63 1
  56   28   64 1
  57   29   30 am
  58   29   31 2
  59   30   32 1
  60   30   65 1
  61   32   33 1
  62   32   66 1
  63   32   67 1
  64   33   34 1
  65   33   68 1
  66   33   69 1
  67   34   35 1
  68   34   70 1
  69   34   71 1
  70   35   36 am
  71   35   37 1
  72   36   40 2
  73   36   39 1
  74   37   38 1
  75   37   72 1
  76   37   73 1
  77   38   39 1
  78   38   74 1
  79   38   75 1
  80   39   76 1
  81   39   77 1

#	End of record

