#	Name: ASD04880323
#	Creating user name:	WinNT
#	Creation time:	15. 06. 2019 20:53

#	Modifying user name:	WinNT
#	Modification time:	15. 06. 2019 20:53

#	Program:	/corina/corina34_cracker 3.40 0067  02.08.2006

@<TRIPOS>MOLECULE
ASD04880323
  39   42    0    0    0
SMALL
NO_CHARGES


@<TRIPOS>ATOM
   1 C1            -0.0144     1.2117     0.0087 C.2     
   2 O2             0.0436    -0.0026     0.0315 O.2     
   3 N3             1.1185     1.9395    -0.0483 N.am    
   4 N4             1.1861     3.3239    -0.1911 N.2     
   5 C5             2.3865     3.7921    -0.2200 C.2     
   6 C6             3.3750     2.6560    -0.0857 C.3     
   7 C7             2.4859     1.4026     0.0364 C.3     
   8 N8             1.3472     8.6664    -0.7445 N.pl3   
   9 N9             2.2430     9.7380    -0.8419 N.2     
  10 C10            3.4661     9.2975    -0.7761 C.2     
  11 C11            3.4347     7.8903    -0.6295 C.ar    
  12 C12            4.4329     6.9116    -0.5111 C.ar    
  13 C13            4.0907     5.6017    -0.3805 C.ar    
  14 C14            2.7410     5.2155    -0.3621 C.ar    
  15 C15            1.7368     6.1717    -0.4779 C.ar    
  16 C16            2.0775     7.5119    -0.6120 C.ar    
  17 C17           -0.1145     8.7615    -0.7727 C.3     
  18 C18           -1.3275     1.8895     0.0373 C.ar    
  19 C19           -2.5036     1.1430    -0.0542 C.ar    
  20 C20           -3.7276     1.7832    -0.0263 C.ar    
  21 C21           -3.7878     3.1629     0.0918 C.ar    
  22 C22           -2.6251     3.9063     0.1823 C.ar    
  23 C23           -1.3968     3.2780     0.1618 C.ar    
  24 F24           -4.8674     1.0634    -0.1147 F       
  25 H25            4.0094     2.5946    -0.9699 H       
  26 H26            3.9802     2.7798     0.8124 H       
  27 H27            2.6454     0.9087     0.9950 H       
  28 H28            2.6799     0.7154    -0.7872 H       
  29 H29            4.3574     9.9053    -0.8254 H       
  30 H30            5.4740     7.1985    -0.5246 H       
  31 H31            4.8635     4.8527    -0.2901 H       
  32 H32            0.6988     5.8738    -0.4639 H       
  33 H33           -0.4640     8.6808    -1.8019 H       
  34 H34           -0.5426     7.9537    -0.1792 H       
  35 H35           -0.4242     9.7207    -0.3578 H       
  36 H36           -2.4568     0.0680    -0.1469 H       
  37 H37           -4.7466     3.6595     0.1129 H       
  38 H38           -2.6788     4.9811     0.2737 H       
  39 H39           -0.4902     3.8601     0.2375 H       
@<TRIPOS>BOND
   1    1    2 2
   2    1    3 am
   3    1   18 1
   4    3    4 1
   5    3    7 1
   6    4    5 2
   7    5    6 1
   8    5   14 1
   9    6    7 1
  10    6   25 1
  11    6   26 1
  12    7   27 1
  13    7   28 1
  14    8    9 1
  15    8   16 1
  16    8   17 1
  17    9   10 2
  18   10   11 1
  19   10   29 1
  20   11   12 ar
  21   11   16 ar
  22   12   13 ar
  23   12   30 1
  24   13   14 ar
  25   13   31 1
  26   14   15 ar
  27   15   16 ar
  28   15   32 1
  29   17   33 1
  30   17   34 1
  31   17   35 1
  32   18   19 ar
  33   18   23 ar
  34   19   20 ar
  35   19   36 1
  36   20   21 ar
  37   20   24 1
  38   21   22 ar
  39   21   37 1
  40   22   23 ar
  41   22   38 1
  42   23   39 1

#	End of record

