#	Name: ASD04910102
#	Creating user name:	WinNT
#	Creation time:	15. 06. 2019 20:55

#	Modifying user name:	WinNT
#	Modification time:	15. 06. 2019 20:55

#	Program:	/corina/corina34_cracker 3.40 0067  02.08.2006

@<TRIPOS>MOLECULE
ASD04910102
  36   37    0    0    0
SMALL
NO_CHARGES


@<TRIPOS>ATOM
   1 C1            -0.0180     1.4754     0.0102 C.2     
   2 C2             0.0021    -0.0041     0.0020 C.ar    
   3 C3             1.2207    -0.6851    -0.0133 C.ar    
   4 C4             1.2405    -2.0626    -0.0209 C.ar    
   5 C5             0.0397    -2.7785    -0.0132 C.ar    
   6 C6            -1.1801    -2.0956     0.0021 C.ar    
   7 C7            -1.1976    -0.7181     0.0154 C.ar    
   8 O8             1.0253     2.0968     0.0035 O.2     
   9 O9            -1.1934     2.1329     0.0193 O.3     
  10 C10            0.0597    -4.2525    -0.0218 C.2     
  11 O11            1.1176    -4.8442    -0.0355 O.2     
  12 C12           -1.2350    -5.0236    -0.0136 C.3     
  13 C13           -1.0102    -6.4043    -0.6333 C.3     
  14 C14           -2.3246    -7.1873    -0.6250 C.3     
  15 C15           -2.8131    -7.3484     0.8159 C.3     
  16 C16           -3.0380    -5.9678     1.4357 C.3     
  17 C17           -1.7235    -5.1848     1.4273 C.3     
  18 C18           -1.1371     3.5838     0.0269 C.3     
  19 H19            2.1482    -0.1319    -0.0195 H       
  20 H20            2.1833    -2.5893    -0.0331 H       
  21 H21           -2.1083    -2.6477     0.0080 H       
  22 H22           -2.1397    -0.1903     0.0317 H       
  23 H23           -1.9836    -4.4830    -0.5927 H       
  24 H24           -0.6622    -6.2895    -1.6599 H       
  25 H25           -0.2616    -6.9450    -0.0542 H       
  26 H26           -3.0733    -6.6466    -1.2041 H       
  27 H27           -2.1645    -8.1709    -1.0665 H       
  28 H28           -3.7496    -7.9062     0.8219 H       
  29 H29           -2.0645    -7.8891     1.3950 H       
  30 H30           -3.7866    -5.4271     0.8566 H       
  31 H31           -3.3860    -6.0826     2.4622 H       
  32 H32           -0.9749    -5.7254     2.0064 H       
  33 H33           -1.8837    -4.2012     1.8688 H       
  34 H34           -2.1499     3.9867     0.0339 H       
  35 H35           -0.6054     3.9221     0.9162 H       
  36 H36           -0.6138     3.9318    -0.8637 H       
@<TRIPOS>BOND
   1    1    2 1
   2    1    8 2
   3    1    9 1
   4    2    3 ar
   5    2    7 ar
   6    3    4 ar
   7    3   19 1
   8    4    5 ar
   9    4   20 1
  10    5    6 ar
  11    5   10 1
  12    6    7 ar
  13    6   21 1
  14    7   22 1
  15    9   18 1
  16   10   11 2
  17   10   12 1
  18   12   13 1
  19   12   17 1
  20   12   23 1
  21   13   14 1
  22   13   24 1
  23   13   25 1
  24   14   15 1
  25   14   26 1
  26   14   27 1
  27   15   16 1
  28   15   28 1
  29   15   29 1
  30   16   17 1
  31   16   30 1
  32   16   31 1
  33   17   32 1
  34   17   33 1
  35   18   34 1
  36   18   35 1
  37   18   36 1

#	End of record

