#	Name: ASD07930727
#	Creating user name:	WinNT
#	Creation time:	15. 06. 2019 21:13

#	Modifying user name:	WinNT
#	Modification time:	15. 06. 2019 21:13

#	Program:	/corina/corina34_cracker 3.40 0067  02.08.2006

@<TRIPOS>MOLECULE
ASD07930727
  45   47    0    0    0
SMALL
NO_CHARGES


@<TRIPOS>ATOM
   1 C1            -0.0178     1.4608     0.0101 C.3     
   2 N2             0.8031    -0.4153    -2.1619 N.2     
   3 N3            -0.8796    -1.7833    -1.2911 N.pl3   
   4 C4            -0.9005    -2.8248    -0.2586 C.3     
   5 C5            -1.2102    -2.1834     1.1010 C.3     
   6 S6             0.0275    -0.8859     1.4156 S.o2    
   7 N7             0.0021    -0.0041     0.0020 N.am    
   8 C8             0.0002    -0.7257    -1.1832 C.2     
   9 C9             0.4646    -3.5132    -0.1997 C.3     
  10 O10           -0.4323     0.0192     2.4099 O.2     
  11 O11            1.3354    -1.4387     1.4687 O.2     
  12 C12           -1.9634    -3.8404    -0.5898 C.2     
  13 S13           -3.3416    -4.2315     0.4300 S.3     
  14 C14           -3.9134    -5.4124    -0.7414 C.2     
  15 C15           -3.0706    -5.4466    -1.7930 C.2     
  16 C16           -2.0037    -4.5754    -1.7055 C.2     
  17 C17           -5.1297    -6.2397    -0.5952 C.ar    
  18 C18           -5.4848    -7.1468    -1.5948 C.ar    
  19 C19           -6.6212    -7.9158    -1.4522 C.ar    
  20 C20           -7.4083    -7.7894    -0.3213 C.ar    
  21 C21           -7.0622    -6.8919     0.6731 C.ar    
  22 C22           -5.9250    -6.1213     0.5457 C.ar    
  23 Cl23          -0.7963    -4.4527    -2.9468 Cl      
  24 C24           -7.0064    -8.8954    -2.5307 C.3     
  25 F25           -6.4161   -10.1359    -2.2664 F       
  26 F26           -8.3980    -9.0371    -2.5566 F       
  27 F27           -6.5627    -8.4225    -3.7703 F       
  28 C28           -7.9260    -6.7602     1.9009 C.3     
  29 F29           -9.0092    -7.6405     1.8057 F       
  30 F30           -7.1714    -7.0705     3.0374 F       
  31 F31           -8.3992    -5.4474     1.9996 F       
  32 H32            1.0048     1.8381     0.0023 H       
  33 H33           -0.5450     1.8219    -0.8730 H       
  34 H34           -0.5280     1.8123     0.9069 H       
  35 H35            0.7883    -0.9307    -2.9835 H       
  36 H36           -1.4804    -1.8399    -2.0505 H       
  37 H37           -2.2071    -1.7432     1.0811 H       
  38 H38           -1.1573    -2.9394     1.8845 H       
  39 H39            1.2322    -2.7780     0.0418 H       
  40 H40            0.4485    -4.2871     0.5677 H       
  41 H41            0.6857    -3.9650    -1.1667 H       
  42 H42           -3.2209    -6.1007    -2.6392 H       
  43 H43           -4.8714    -7.2461    -2.4782 H       
  44 H44           -8.2969    -8.3939    -0.2145 H       
  45 H45           -5.6557    -5.4212     1.3228 H       
@<TRIPOS>BOND
   1    1    7 1
   2    1   32 1
   3    1   33 1
   4    1   34 1
   5    2    8 2
   6    2   35 1
   7    3    4 1
   8    3    8 1
   9    3   36 1
  10    4    5 1
  11    4    9 1
  12    4   12 1
  13    5    6 1
  14    5   37 1
  15    5   38 1
  16    6    7 am
  17    6   10 2
  18    6   11 2
  19    7    8 1
  20    9   39 1
  21    9   40 1
  22    9   41 1
  23   12   13 1
  24   12   16 2
  25   13   14 1
  26   14   15 2
  27   14   17 1
  28   15   16 1
  29   15   42 1
  30   16   23 1
  31   17   18 ar
  32   17   22 ar
  33   18   19 ar
  34   18   43 1
  35   19   20 ar
  36   19   24 1
  37   20   21 ar
  38   20   44 1
  39   21   22 ar
  40   21   28 1
  41   22   45 1
  42   24   25 1
  43   24   26 1
  44   24   27 1
  45   28   29 1
  46   28   30 1
  47   28   31 1

#	End of record

