#	Name: ASD01910298
#	Creating user name:	WinNT
#	Creation time:	15. 06. 2019 19:55

#	Modifying user name:	WinNT
#	Modification time:	15. 06. 2019 19:55

#	Program:	/corina/corina34_cracker 3.40 0067  02.08.2006

@<TRIPOS>MOLECULE
ASD01910298
  44   47    0    0    0
SMALL
NO_CHARGES


@<TRIPOS>ATOM
   1 C1             0.6151     2.3462    -0.1568 C.ar    
   2 C2             0.7856     0.9742    -0.2416 C.ar    
   3 C3            -0.3148     0.1385    -0.2996 C.ar    
   4 C4            -1.5892     0.6677    -0.2734 C.ar    
   5 C5            -1.7677     2.0468    -0.1878 C.ar    
   6 C6            -0.6578     2.8854    -0.1241 C.ar    
   7 C7            -3.1368     2.6202    -0.1597 C.2     
   8 N8            -3.4541     3.8971    -0.0813 N.2     
   9 N9            -4.7398     3.9848    -0.0833 N.pl3   
  10 N10           -5.2471     2.8042    -0.1605 N.2     
  11 N11           -4.2908     1.9404    -0.2151 N.2     
  12 C12           -5.5043     5.2324    -0.0086 C.3     
  13 C13           -6.3788     5.3711    -1.2569 C.3     
  14 C14           -7.1530     6.6898    -1.1954 C.3     
  15 C15           -8.0648     6.6850     0.0356 C.3     
  16 N16           -7.2501     6.4075     1.2264 N.am    
  17 C17           -6.3973     5.2111     1.2358 C.3     
  18 C18           -7.2844     7.2347     2.2899 C.2     
  19 C19           -6.5623     6.8765     3.5279 C.ar    
  20 O20           -7.9097     8.2755     2.2305 O.2     
  21 C21           -5.8465     7.8499     4.2281 C.ar    
  22 C22           -5.1748     7.5104     5.3829 C.ar    
  23 C23           -5.2090     6.2052     5.8495 C.ar    
  24 C24           -5.9177     5.2347     5.1579 C.ar    
  25 C25           -6.5977     5.5646     4.0052 C.ar    
  26 F26           -4.5489     5.8777     6.9819 F       
  27 F27            1.6935     3.1581    -0.1003 F       
  28 H28            1.7810     0.5558    -0.2627 H       
  29 H29           -0.1765    -0.9306    -0.3660 H       
  30 H30           -2.4472     0.0134    -0.3196 H       
  31 H31           -0.7909     3.9551    -0.0573 H       
  32 H32           -4.8176     6.0768     0.0502 H       
  33 H33           -5.7475     5.3618    -2.1454 H       
  34 H34           -7.0815     4.5391    -1.3022 H       
  35 H35           -6.4512     7.5208    -1.1251 H       
  36 H36           -7.7578     6.7989    -2.0956 H       
  37 H37           -8.5438     7.6586     0.1394 H       
  38 H38           -8.8248     5.9116    -0.0755 H       
  39 H39           -7.0213     4.3175     1.2225 H       
  40 H40           -5.7761     5.2122     2.1315 H       
  41 H41           -5.8190     8.8668     3.8654 H       
  42 H42           -4.6207     8.2623     5.9251 H       
  43 H43           -5.9408     4.2194     5.5255 H       
  44 H44           -7.1497     4.8080     3.4674 H       
@<TRIPOS>BOND
   1    1    2 ar
   2    1   27 1
   3    1    6 ar
   4    2    3 ar
   5    2   28 1
   6    3    4 ar
   7    3   29 1
   8    4    5 ar
   9    4   30 1
  10    5    6 ar
  11    5    7 1
  12    6   31 1
  13    7    8 2
  14    7   11 1
  15    8    9 1
  16    9   10 1
  17    9   12 1
  18   10   11 2
  19   12   13 1
  20   12   17 1
  21   12   32 1
  22   13   14 1
  23   13   33 1
  24   13   34 1
  25   14   15 1
  26   14   35 1
  27   14   36 1
  28   15   16 1
  29   15   37 1
  30   15   38 1
  31   16   17 1
  32   16   18 am
  33   17   39 1
  34   17   40 1
  35   18   19 1
  36   18   20 2
  37   19   21 ar
  38   19   25 ar
  39   21   22 ar
  40   21   41 1
  41   22   23 ar
  42   22   42 1
  43   23   24 ar
  44   23   26 1
  45   24   25 ar
  46   24   43 1
  47   25   44 1

#	End of record

