#	Name: ASD03110013
#	Creating user name:	WinNT
#	Creation time:	15. 06. 2019 20:33

#	Modifying user name:	WinNT
#	Modification time:	15. 06. 2019 20:33

#	Program:	/corina/corina34_cracker 3.40 0067  02.08.2006

@<TRIPOS>MOLECULE
ASD03110013
  43   46    0    0    0
SMALL
NO_CHARGES


@<TRIPOS>ATOM
   1 C1            -0.0167     1.3837     0.0096 C.ar    
   2 C2             0.0021    -0.0041     0.0020 C.ar    
   3 C3             1.2033    -0.6765    -0.0126 C.ar    
   4 C4             2.4013     0.0355    -0.0198 C.ar    
   5 C5             2.3914     1.4362    -0.0127 C.ar    
   6 C6             1.1424     2.0967     0.0024 C.ar    
   7 S7             4.0773    -0.5072    -0.0377 S.3     
   8 C8             4.6287     1.1625    -0.0342 C.2     
   9 N9             3.6194     1.9666    -0.0211 N.2     
  10 C10            6.0454     1.5847    -0.0444 C.ar    
  11 C11            6.3692     2.9433    -0.0406 C.ar    
  12 C12            7.0599     0.6248    -0.0522 C.ar    
  13 C13            8.3792     1.0176    -0.0617 C.ar    
  14 C14            8.7033     2.3767    -0.0636 C.ar    
  15 C15            7.6882     3.3367    -0.0505 C.ar    
  16 C16           10.1191     2.7985    -0.0733 C.2     
  17 O17           11.0026     1.9628    -0.0796 O.2     
  18 N18           10.4316     4.1096    -0.0751 N.am    
  19 N19           11.7742     4.5096    -0.0843 N.2     
  20 C20           12.0753     5.7729    -0.0860 C.2     
  21 C21           13.4868     6.1935    -0.0957 C.ar    
  22 C22           14.5079     5.2322    -0.1030 C.ar    
  23 C23           13.8140     7.5521    -0.1034 C.ar    
  24 C24           15.1355     7.9413    -0.1123 C.ar    
  25 C25           16.1459     6.9868    -0.1138 C.ar    
  26 C26           15.8316     5.6356    -0.1120 C.ar    
  27 O27           17.4466     7.3786    -0.1226 O.3     
  28 O28           14.1986     3.9099    -0.1008 O.3     
  29 H29           -0.9630     1.9042     0.0169 H       
  30 H30           -0.9259    -0.5566     0.0079 H       
  31 H31            1.2173    -1.7564    -0.0182 H       
  32 H32            1.1074     3.1761     0.0078 H       
  33 H33            5.5845     3.6853    -0.0301 H       
  34 H34            6.8093    -0.4257    -0.0504 H       
  35 H35            9.1637     0.2753    -0.0673 H       
  36 H36            7.9385     4.3873    -0.0523 H       
  37 H37            9.7269     4.7761    -0.0700 H       
  38 H38           11.2907     6.5151    -0.0804 H       
  39 H39           13.0314     8.2964    -0.1026 H       
  40 H40           15.3872     8.9915    -0.1186 H       
  41 H41           16.6205     4.8980    -0.1131 H       
  42 H42           17.8280     7.4959     0.7582 H       
  43 H43           14.1027     3.5269    -0.9835 H       
@<TRIPOS>BOND
   1    1    2 ar
   2    1    6 ar
   3    1   29 1
   4    2    3 ar
   5    2   30 1
   6    3    4 ar
   7    3   31 1
   8    4    5 ar
   9    4    7 1
  10    5    6 ar
  11    5    9 1
  12    6   32 1
  13    7    8 1
  14    8    9 2
  15    8   10 1
  16   10   11 ar
  17   10   12 ar
  18   11   15 ar
  19   11   33 1
  20   12   13 ar
  21   12   34 1
  22   13   14 ar
  23   13   35 1
  24   14   15 ar
  25   14   16 1
  26   15   36 1
  27   16   17 2
  28   16   18 am
  29   18   19 1
  30   18   37 1
  31   19   20 2
  32   20   21 1
  33   20   38 1
  34   21   22 ar
  35   21   23 ar
  36   22   28 1
  37   22   26 ar
  38   23   24 ar
  39   23   39 1
  40   24   25 ar
  41   24   40 1
  42   25   26 ar
  43   25   27 1
  44   26   41 1
  45   27   42 1
  46   28   43 1

#	End of record

