#	Name: ASD03730461
#	Creating user name:	WinNT
#	Creation time:	15. 06. 2019 20:44

#	Modifying user name:	WinNT
#	Modification time:	15. 06. 2019 20:44

#	Program:	/corina/corina34_cracker 3.40 0067  02.08.2006

@<TRIPOS>MOLECULE
ASD03730461
  49   54    0    0    0
SMALL
NO_CHARGES


@<TRIPOS>ATOM
   1 C1            -0.0465     1.4850     0.2239 C.2     
   2 C2            -0.0457    -0.0219     0.2059 C.3     
   3 O3             0.9869     2.0897     0.4175 O.2     
   4 N4            -1.1946     2.1607     0.0195 N.am    
   5 C5            -1.2153     3.5552     0.1328 C.ar    
   6 C6            -0.1181     4.3028    -0.2744 C.ar    
   7 C7            -0.1417     5.6791    -0.1612 C.ar    
   8 C8            -1.2563     6.3127     0.3569 C.ar    
   9 C9            -2.3503     5.5711     0.7636 C.ar    
  10 C10           -2.3354     4.1950     0.6473 C.ar    
  11 O11            5.7363     2.7527     3.4559 O.3     
  12 C12            7.0882     2.6735     3.9447 C.3     
  13 O13            7.1837     1.3372     4.4723 O.3     
  14 C14            6.2771     0.5995     3.7661 C.ar    
  15 C15            5.3867     1.4704     3.1422 C.ar    
  16 C16            6.1379    -0.7670     3.6017 C.ar    
  17 C17            5.1106    -1.2816     2.8165 C.ar    
  18 C18            4.2225    -0.4020     2.2051 C.ar    
  19 C19            4.3623     0.9612     2.3620 C.ar    
  20 O20            4.8097    -2.5771     2.5142 O.3     
  21 C21            3.2246    -1.2484     1.4609 C.3     
  22 C22            3.4512    -2.6513     2.0406 C.3     
  23 N23            1.3139    -0.5124     0.4450 N.am    
  24 C24            1.8137    -0.7780     1.6684 C.2     
  25 C25            3.4411    -1.2144    -0.0230 C.ar    
  26 C26            4.5084    -1.5240    -0.8360 C.ar    
  27 C27            4.3971    -1.3861    -2.2082 C.ar    
  28 C28            3.2118    -0.9361    -2.7608 C.ar    
  29 C29            2.1403    -0.6238    -1.9505 C.ar    
  30 C30            2.2431    -0.7599    -0.5683 C.ar    
  31 O31            1.2369    -0.6606     2.7288 O.2     
  32 H32           -0.7090    -0.3950     0.9862 H       
  33 H33           -0.3933    -0.3738    -0.7654 H       
  34 H34           -2.0065     1.6803    -0.2062 H       
  35 H35            0.7528     3.8085    -0.6788 H       
  36 H36            0.7114     6.2610    -0.4773 H       
  37 H37           -1.2723     7.3890     0.4443 H       
  38 H38           -3.2191     6.0689     1.1681 H       
  39 H39           -3.1920     3.6167     0.9607 H       
  40 H40            7.7988     2.8154     3.1305 H       
  41 H41            7.2545     3.4088     4.7320 H       
  42 H42            6.8310    -1.4389     4.0860 H       
  43 H43            3.6707     1.6331     1.8755 H       
  44 H44            3.3524    -3.4111     1.2653 H       
  45 H45            2.7641    -2.8454     2.8642 H       
  46 H46            5.4331    -1.8750    -0.4023 H       
  47 H47            5.2338    -1.6297    -2.8463 H       
  48 H48            3.1251    -0.8284    -3.8319 H       
  49 H49            1.2181    -0.2725    -2.3895 H       
@<TRIPOS>BOND
   1    1    2 1
   2    1    3 2
   3    1    4 am
   4    2   23 1
   5    2   32 1
   6    2   33 1
   7    4    5 1
   8    4   34 1
   9    5    6 ar
  10    5   10 ar
  11    6    7 ar
  12    6   35 1
  13    7    8 ar
  14    7   36 1
  15    8    9 ar
  16    8   37 1
  17    9   10 ar
  18    9   38 1
  19   10   39 1
  20   11   12 1
  21   11   15 1
  22   12   13 1
  23   12   40 1
  24   12   41 1
  25   13   14 1
  26   14   15 ar
  27   14   16 ar
  28   15   19 ar
  29   16   17 ar
  30   16   42 1
  31   17   18 ar
  32   17   20 1
  33   18   19 ar
  34   18   21 1
  35   19   43 1
  36   20   22 1
  37   21   22 1
  38   21   24 1
  39   21   25 1
  40   22   44 1
  41   22   45 1
  42   23   24 am
  43   23   30 1
  44   24   31 2
  45   25   26 ar
  46   25   30 ar
  47   26   27 ar
  48   26   46 1
  49   27   28 ar
  50   27   47 1
  51   28   29 ar
  52   28   48 1
  53   29   30 ar
  54   29   49 1

#	End of record

