#	Name: ASD01730081
#	Creating user name:	WinNT
#	Creation time:	15. 06. 2019 19:23

#	Modifying user name:	WinNT
#	Modification time:	15. 06. 2019 19:23

#	Program:	/corina/corina34_cracker 3.40 0067  02.08.2006

@<TRIPOS>MOLECULE
ASD01730081
  32   32    0    0    0
SMALL
NO_CHARGES


@<TRIPOS>ATOM
   1 C1            -0.0186     1.5023     0.0155 C.2     
   2 C2             0.0014    -0.0045     0.0125 C.3     
   3 C3             1.4504    -0.4954     0.0013 C.3     
   4 C4            -0.7043    -0.5265     1.2657 C.3     
   5 C5            -0.7218    -0.5216    -1.2327 C.3     
   6 O6             1.0237     2.1227     0.0094 O.2     
   7 N7            -1.1946     2.1607     0.0195 N.am    
   8 C8            -1.2153     3.5571     0.1329 C.ar    
   9 C9            -2.1836     4.2939    -0.5360 C.ar    
  10 C10           -2.2037     5.6700    -0.4234 C.ar    
  11 C11           -1.2567     6.3163     0.3575 C.ar    
  12 C12           -0.2887     5.5808     1.0257 C.ar    
  13 C13           -0.2712     4.2041     0.9189 C.ar    
  14 O14           -1.2768     7.6714     0.4676 O.3     
  15 C15           -0.2720     8.2707     1.2881 C.3     
  16 F16            0.9933     7.9534     0.7824 F       
  17 F17           -0.4386     9.6597     1.2898 F       
  18 F18           -0.3868     7.7856     2.5952 F       
  19 H19            1.9657    -0.1270     0.8884 H       
  20 H20            1.4649    -1.5853    -0.0009 H       
  21 H21            1.9532    -0.1235    -0.8915 H       
  22 H22           -1.7367    -0.1768     1.2736 H       
  23 H23           -0.6899    -1.6164     1.2635 H       
  24 H24           -0.1891    -0.1581     2.1528 H       
  25 H25           -0.2191    -0.1498    -2.1255 H       
  26 H26           -0.7074    -1.6115    -1.2350 H       
  27 H27           -1.7542    -0.1719    -1.2248 H       
  28 H28           -2.0266     1.6678    -0.0563 H       
  29 H29           -2.9205     3.7909    -1.1445 H       
  30 H30           -2.9568     6.2433    -0.9436 H       
  31 H31            0.4487     6.0846     1.6328 H       
  32 H32            0.4797     3.6313     1.4427 H       
@<TRIPOS>BOND
   1    1    2 1
   2    1    6 2
   3    1    7 am
   4    2    3 1
   5    2    4 1
   6    2    5 1
   7    3   19 1
   8    3   20 1
   9    3   21 1
  10    4   22 1
  11    4   23 1
  12    4   24 1
  13    5   25 1
  14    5   26 1
  15    5   27 1
  16    7    8 1
  17    7   28 1
  18    8    9 ar
  19    8   13 ar
  20    9   10 ar
  21    9   29 1
  22   10   11 ar
  23   10   30 1
  24   11   12 ar
  25   11   14 1
  26   12   13 ar
  27   12   31 1
  28   13   32 1
  29   14   15 1
  30   15   16 1
  31   15   17 1
  32   15   18 1

#	End of record

