#	Name: ASD01916014
#	Creating user name:	WinNT
#	Creation time:	15. 06. 2019 20:06

#	Modifying user name:	WinNT
#	Modification time:	15. 06. 2019 20:06

#	Program:	/corina/corina34_cracker 3.40 0067  02.08.2006

@<TRIPOS>MOLECULE
ASD01916014
  40   42    0    0    0
SMALL
NO_CHARGES


@<TRIPOS>ATOM
   1 C1            -1.1537     2.9854     2.0985 C.ar    
   2 C2            -0.6074     1.7923     1.6044 C.ar    
   3 C3            -1.4696     0.8232     1.1300 C.ar    
   4 C4            -2.8445     1.0614     1.1578 C.ar    
   5 C5            -3.7743     0.0284     0.6514 C.2     
   6 N6            -5.1040     0.1842     0.8067 N.am    
   7 O7            -3.3391    -0.9610     0.0954 O.2     
   8 C8            -6.0293    -0.7823     0.2101 C.3     
   9 C9            -0.3018     4.0210     2.6011 C.1     
  10 C10            0.3966     4.8700     3.0131 C.1     
  11 C11            1.2484     5.9055     3.5156 C.ar    
  12 C12            0.6968     7.0919     4.0064 C.ar    
  13 C13            3.4501     6.7331     4.0086 C.ar    
  14 C14            1.5245     8.0854     4.4897 C.ar    
  15 N15           -3.3297     2.2034     1.6333 N.ar    
  16 C16           -2.5451     3.1521     2.0880 C.ar    
  17 C17            2.6356     5.7321     3.5229 C.ar    
  18 C18            2.8979     7.9080     4.4881 C.ar    
  19 C19           -5.6240     1.3200     1.5720 C.3     
  20 C20           -5.8018    -2.2432     0.6034 C.3     
  21 C21           -7.4724    -0.3292    -0.0203 C.3     
  22 C22           -6.5249    -0.5020    -1.2101 C.3     
  23 Cl23           0.8423     9.5604     5.1001 Cl      
  24 F24           -5.9059    -2.3738     1.9924 F       
  25 F25           -6.7652    -3.0479    -0.0142 F       
  26 F26           -4.5262    -2.6438     0.1917 F       
  27 H27            0.4610     1.6352     1.5948 H       
  28 H28           -1.0844    -0.1081     0.7417 H       
  29 H29           -0.3742     7.2313     4.0074 H       
  30 H30            4.5220     6.6017     4.0108 H       
  31 H31           -2.9767     4.0669     2.4667 H       
  32 H32            3.0683     4.8159     3.1491 H       
  33 H33            3.5410     8.6885     4.8673 H       
  34 H34           -5.6996     2.1919     0.9223 H       
  35 H35           -6.6104     1.0726     1.9643 H       
  36 H36           -4.9489     1.5405     2.3989 H       
  37 H37           -8.2597    -1.0721     0.1080 H       
  38 H38           -7.7333     0.6879     0.2720 H       
  39 H39           -6.1627     0.4016    -1.7004 H       
  40 H40           -6.6892    -1.3584    -1.8641 H       
@<TRIPOS>BOND
   1    1    2 ar
   2    1    9 1
   3    1   16 ar
   4    2    3 ar
   5    2   27 1
   6    3    4 ar
   7    3   28 1
   8    4   15 ar
   9    4    5 1
  10    5    6 am
  11    5    7 2
  12    6    8 1
  13    6   19 1
  14    8   20 1
  15    8   21 1
  16    8   22 1
  17    9   10 3
  18   10   11 1
  19   11   12 ar
  20   11   17 ar
  21   12   14 ar
  22   12   29 1
  23   13   18 ar
  24   13   17 ar
  25   13   30 1
  26   14   23 1
  27   14   18 ar
  28   15   16 ar
  29   16   31 1
  30   17   32 1
  31   18   33 1
  32   19   34 1
  33   19   35 1
  34   19   36 1
  35   20   24 1
  36   20   25 1
  37   20   26 1
  38   21   22 1
  39   21   37 1
  40   21   38 1
  41   22   39 1
  42   22   40 1

#	End of record

