#	Name: ASD02560204
#	Creating user name:	WinNT
#	Creation time:	15. 06. 2019 20:24

#	Modifying user name:	WinNT
#	Modification time:	15. 06. 2019 20:24

#	Program:	/corina/corina34_cracker 3.40 0067  02.08.2006

@<TRIPOS>MOLECULE
ASD02560204
  81   86    0    0    0
SMALL
NO_CHARGES


@<TRIPOS>ATOM
   1 Br1            0.8218     2.0151    -1.8905 Br      
   2 N2            -0.3359     1.5250     0.6496 N.2     
   3 N3            -1.0359     0.5087     0.6964 N.2     
   4 C4             0.9181     1.2736    -0.0723 C.3     
   5 N5             1.0357    -0.2056    -0.1227 N.3     
   6 C6            -0.3843    -0.6171     0.0148 C.3     
   7 S7            -0.5113    -2.1226     1.0189 S.3     
   8 C8             0.2137    -1.6186     2.6035 C.3     
   9 C9             0.1813    -2.7803     3.5629 C.2     
  10 O10           -0.2850    -3.8435     3.2122 O.2     
  11 N11            0.6705    -2.6377     4.8106 N.am    
  12 C12            1.5606    -0.6234    -1.3437 C.ar    
  13 C13            0.5802    -3.6916     5.7198 C.ar    
  14 C14            0.4560    -3.4262     7.0811 C.ar    
  15 C15            0.3666    -4.4651     7.9812 C.ar    
  16 C16            0.4007    -5.7862     7.5263 C.ar    
  17 C17            0.5254    -6.0484     6.1596 C.ar    
  18 C18            0.6086    -5.0053     5.2643 C.ar    
  19 Cl19           0.4143    -1.7846     7.6444 Cl      
  20 C20            0.3057    -6.9021     8.4877 C.2     
  21 C21            2.8440    -0.1989    -1.7498 C.ar    
  22 C22            0.8335    -1.4599    -2.1639 C.ar    
  23 C23            1.3487    -1.8829    -3.3852 C.ar    
  24 C24            2.5817    -1.4846    -3.8040 C.ar    
  25 C25            3.3573    -0.6364    -2.9957 C.ar    
  26 C26            3.6201     0.6481    -0.9435 C.ar    
  27 C27            4.6331    -0.2089    -3.4027 C.ar    
  28 C28            5.3575     0.6131    -2.5952 C.ar    
  29 C29            4.8539     1.0380    -1.3674 C.ar    
  30 C30            3.1164    -1.9577    -5.1312 C.3     
  31 N31            0.3387    -8.1755     8.0476 N.am    
  32 O32            0.1976    -6.6725     9.6768 O.2     
  33 C33            3.2773    -3.4661    -5.3308 C.3     
  34 C34            2.1558    -2.7145    -6.0506 C.3     
  35 C35            0.2444    -9.2831     9.0018 C.3     
  36 C36            1.6134    -9.5901     9.5521 C.2     
  37 C37           -0.3099   -10.5208     8.2935 C.3     
  38 O38            2.5697    -8.9494     9.1848 O.2     
  39 O39            1.7703   -10.5752    10.4502 O.3     
  40 C40            3.1171   -10.8151    10.9369 C.3     
  41 C41           -1.7255   -10.2544     7.8507 C.ar    
  42 C42           -1.9677    -9.7150     6.6008 C.ar    
  43 C43           -2.7801   -10.5551     8.6927 C.ar    
  44 C44           -4.0788   -10.3123     8.2890 C.ar    
  45 C45           -4.3242    -9.7663     7.0375 C.ar    
  46 C46           -3.2645    -9.4699     6.1926 C.ar    
  47 O47           -5.6009    -9.5268     6.6378 O.3     
  48 C48            3.0977   -11.9661    11.9447 C.3     
  49 H49            1.7607     1.7032     0.4696 H       
  50 H50           -0.8302    -0.7760    -0.9670 H       
  51 H51            1.2459    -1.3050     2.4474 H       
  52 H52           -0.3593    -0.7891     3.0178 H       
  53 H53            1.0854    -1.8021     5.0763 H       
  54 H54            0.2706    -4.2590     9.0370 H       
  55 H55            0.5521    -7.0683     5.8052 H       
  56 H56            0.7047    -5.2078     4.2078 H       
  57 H57           -0.1470    -1.7909    -1.8546 H       
  58 H58            0.7611    -2.5381    -4.0112 H       
  59 H59            3.2405     0.9891     0.0084 H       
  60 H60            5.0366    -0.5313    -4.3512 H       
  61 H61            6.3374     0.9400    -2.9103 H       
  62 H62            5.4486     1.6906    -0.7454 H       
  63 H63            3.8541    -1.3065    -5.5999 H       
  64 H64            0.4250    -8.3587     7.0989 H       
  65 H65            4.1207    -3.8072    -5.9312 H       
  66 H66            2.9964    -4.1162    -4.5022 H       
  67 H67            1.1370    -2.8701    -5.6956 H       
  68 H68            2.2613    -2.5611    -7.1246 H       
  69 H69           -0.4211    -9.0034     9.8185 H       
  70 H70            0.3063   -10.7480     7.4235 H       
  71 H71           -0.2970   -11.3681     8.9791 H       
  72 H72            3.7648   -11.0759    10.0999 H       
  73 H73            3.4942    -9.9144    11.4212 H       
  74 H74           -1.1425    -9.4848     5.9433 H       
  75 H75           -2.5886   -10.9806     9.6667 H       
  76 H76           -4.9023   -10.5477     8.9469 H       
  77 H77           -3.4530    -9.0447     5.2179 H       
  78 H78           -5.9263    -8.6457     6.8678 H       
  79 H79            2.4500   -11.7053    12.7817 H       
  80 H80            2.7206   -12.8668    11.4603 H       
  81 H81            4.1087   -12.1462    12.3101 H       
@<TRIPOS>BOND
   1    1    4 1
   2    2    3 2
   3    2    4 1
   4    3    6 1
   5    4    5 1
   6    4   49 1
   7    5    6 1
   8    5   12 1
   9    6    7 1
  10    6   50 1
  11    7    8 1
  12    8    9 1
  13    8   51 1
  14    8   52 1
  15    9   10 2
  16    9   11 am
  17   11   13 1
  18   11   53 1
  19   12   21 ar
  20   12   22 ar
  21   13   14 ar
  22   13   18 ar
  23   14   15 ar
  24   14   19 1
  25   15   16 ar
  26   15   54 1
  27   16   17 ar
  28   16   20 1
  29   17   18 ar
  30   17   55 1
  31   18   56 1
  32   20   31 am
  33   20   32 2
  34   21   25 ar
  35   21   26 ar
  36   22   23 ar
  37   22   57 1
  38   23   24 ar
  39   23   58 1
  40   24   25 ar
  41   24   30 1
  42   25   27 ar
  43   26   29 ar
  44   26   59 1
  45   27   28 ar
  46   27   60 1
  47   28   29 ar
  48   28   61 1
  49   29   62 1
  50   30   33 1
  51   30   34 1
  52   30   63 1
  53   31   35 1
  54   31   64 1
  55   33   34 1
  56   33   65 1
  57   33   66 1
  58   34   67 1
  59   34   68 1
  60   35   36 1
  61   35   37 1
  62   35   69 1
  63   36   38 2
  64   36   39 1
  65   37   41 1
  66   37   70 1
  67   37   71 1
  68   39   40 1
  69   40   48 1
  70   40   72 1
  71   40   73 1
  72   41   42 ar
  73   41   43 ar
  74   42   46 ar
  75   42   74 1
  76   43   44 ar
  77   43   75 1
  78   44   45 ar
  79   44   76 1
  80   45   46 ar
  81   45   47 1
  82   46   77 1
  83   47   78 1
  84   48   79 1
  85   48   80 1
  86   48   81 1

#	End of record

