#	Name: ASD02190024
#	Creating user name:	WinNT
#	Creation time:	15. 06. 2019 20:18

#	Modifying user name:	WinNT
#	Modification time:	15. 06. 2019 20:18

#	Program:	/corina/corina34_cracker 3.40 0067  02.08.2006

@<TRIPOS>MOLECULE
ASD02190024
  47   50    0    0    0
SMALL
NO_CHARGES


@<TRIPOS>ATOM
   1 S1            -0.0218     1.7539     0.0117 S.3     
   2 S2             4.8510     4.1959    -0.0213 S.3     
   3 S3             1.7288     8.0843     0.0280 S.3     
   4 O4             4.2103    -0.7022    -0.0418 O.2     
   5 O5             5.4776     6.9201    -0.0124 O.2     
   6 N6             4.4074     1.5434    -0.0316 N.am    
   7 N7             2.5080     2.9464    -0.0061 N.2     
   8 C8             1.2542    -0.4758    -0.0125 C.2     
   9 C9             1.5842    -1.9630    -0.0243 C.3     
  10 C10            0.3479    -2.7496     0.4134 C.3     
  11 C11           -0.8561    -2.2931    -0.4162 C.3     
  12 C12           -1.2415    -0.8745     0.0100 C.3     
  13 C13            0.0021    -0.0041     0.0020 C.2     
  14 C14            2.2637     0.5618    -0.0165 C.2     
  15 C15            1.7216     1.8499    -0.0044 C.2     
  16 C16            3.6842     0.3974    -0.0307 C.2     
  17 C17            3.8160     2.7699    -0.0195 C.2     
  18 C18            5.8699     1.4602    -0.0454 C.3     
  19 C19            6.3584     1.4389    -1.4709 C.2     
  20 C20            3.5931     5.4973    -0.0026 C.3     
  21 C21            6.4214     0.1364    -2.2264 C.3     
  22 C22            6.7283     2.5525    -2.0533 C.2     
  23 C23            4.2655     6.8459    -0.0016 C.2     
  24 C24            3.4860     8.0236     0.0120 C.2     
  25 C25            3.9781     9.3042     0.0141 C.2     
  26 C26            2.9955    10.2617     0.0276 C.2     
  27 C27            1.7410     9.7903     0.0365 C.2     
  28 H28            1.8712    -2.2651    -1.0315 H       
  29 H29            2.4050    -2.1601     0.6653 H       
  30 H30            0.5180    -3.8143     0.2536 H       
  31 H31            0.1537    -2.5649     1.4699 H       
  32 H32           -0.5936    -2.2981    -1.4741 H       
  33 H33           -1.6952    -2.9669    -0.2432 H       
  34 H34           -1.9744    -0.4701    -0.6880 H       
  35 H35           -1.6650    -0.8974     1.0141 H       
  36 H36            6.2880     2.3256     0.4690 H       
  37 H37            6.1868     0.5485     0.4610 H       
  38 H38            2.9629     5.4062    -0.8873 H       
  39 H39            2.9794     5.3965     0.8925 H       
  40 H40            5.4749    -0.0316    -2.7402 H       
  41 H41            7.2290     0.1790    -2.9571 H       
  42 H42            6.6057    -0.6800    -1.5282 H       
  43 H43            7.0784     2.5371    -3.0748 H       
  44 H44            6.6832     3.4858    -1.5118 H       
  45 H45            5.0330     9.5354     0.0058 H       
  46 H46            3.2171    11.3187     0.0306 H       
  47 H47            0.8554    10.4084     0.0475 H       
@<TRIPOS>BOND
   1    1   13 1
   2    1   15 1
   3    2   17 1
   4    2   20 1
   5    3   24 1
   6    3   27 1
   7    4   16 2
   8    5   23 2
   9    6   16 am
  10    6   17 1
  11    6   18 1
  12    7   15 1
  13    7   17 2
  14    8    9 1
  15    8   13 2
  16    8   14 1
  17    9   10 1
  18    9   28 1
  19    9   29 1
  20   10   11 1
  21   10   30 1
  22   10   31 1
  23   11   12 1
  24   11   32 1
  25   11   33 1
  26   12   13 1
  27   12   34 1
  28   12   35 1
  29   14   15 2
  30   14   16 1
  31   18   19 1
  32   18   36 1
  33   18   37 1
  34   19   21 1
  35   19   22 2
  36   20   23 1
  37   20   38 1
  38   20   39 1
  39   21   40 1
  40   21   41 1
  41   21   42 1
  42   22   43 1
  43   22   44 1
  44   23   24 1
  45   24   25 2
  46   25   26 1
  47   25   45 1
  48   26   27 2
  49   26   46 1
  50   27   47 1

#	End of record

