#	Name: ASD01884478
#	Creating user name:	WinNT
#	Creation time:	15. 06. 2019 19:48

#	Modifying user name:	WinNT
#	Modification time:	15. 06. 2019 19:48

#	Program:	/corina/corina34_cracker 3.40 0067  02.08.2006

@<TRIPOS>MOLECULE
ASD01884478
  50   53    0    0    0
SMALL
NO_CHARGES


@<TRIPOS>ATOM
   1 C1             1.2513     1.1389     0.9101 C.3     
   2 C2             1.1655    -0.3825     0.7686 C.3     
   3 N3             1.6346    -0.7785    -0.5654 N.3     
   4 C4             1.4371    -2.2171    -0.7874 C.3     
   5 C5             2.1449    -2.6323    -2.0514 C.ar    
   6 C6             3.4650    -3.0572    -1.9963 C.ar    
   7 C7             1.4773    -2.5937    -3.2553 C.ar    
   8 C8             4.1290    -3.4411    -3.1404 C.ar    
   9 C9             3.4753    -3.4052    -4.3694 C.ar    
  10 C10            2.1374    -2.9796    -4.4221 C.ar    
  11 N11            4.1293    -3.7876    -5.5224 N.pl3   
  12 C12            3.5433    -3.7706    -6.7288 C.2     
  13 C13            2.2359    -3.3669    -6.9050 C.2     
  14 C14            1.4568    -2.9462    -5.7299 C.2     
  15 O15            0.2987    -2.5812    -5.8337 O.2     
  16 C16            1.6291    -3.3620    -8.2453 C.2     
  17 O17            2.3119    -3.6020    -9.2230 O.2     
  18 N18            0.3166    -3.0917    -8.3899 N.am    
  19 C19            5.4606    -4.2107    -5.4293 C.ar    
  20 C20            5.7876    -5.5375    -5.6778 C.ar    
  21 C21            7.1014    -5.9528    -5.5854 C.ar    
  22 C22            8.0925    -5.0474    -5.2449 C.ar    
  23 C23            7.7686    -3.7240    -4.9963 C.ar    
  24 C24            6.4570    -3.3031    -5.0940 C.ar    
  25 F25            9.3771    -5.4558    -5.1547 F       
  26 C26            2.7018     1.5846     0.7057 C.3     
  27 C27            3.1816     1.1178    -0.6715 C.3     
  28 C28            3.0398    -0.4030    -0.7672 C.3     
  29 F29            2.7770     2.9796     0.7788 F       
  30 F30            3.5091     1.0190     1.6984 F       
  31 H31            0.6165     1.6106     0.1600 H       
  32 H32            0.9177     1.4311     1.9058 H       
  33 H33            1.7897    -0.8537     1.5278 H       
  34 H34            0.1315    -0.7017     0.8994 H       
  35 H35            1.8439    -2.7742     0.0566 H       
  36 H36            0.3717    -2.4273    -0.8818 H       
  37 H37            3.9773    -3.0868    -1.0460 H       
  38 H38            0.4487    -2.2670    -3.2958 H       
  39 H39            5.1564    -3.7695    -3.0843 H       
  40 H40            4.1139    -4.0830    -7.5909 H       
  41 H41           -0.2433    -2.9732    -7.6067 H       
  42 H42           -0.0680    -3.0156    -9.2771 H       
  43 H43            5.0149    -6.2440    -5.9427 H       
  44 H44            7.3560    -6.9844    -5.7785 H       
  45 H45            8.5429    -3.0197    -4.7302 H       
  46 H46            6.2048    -2.2710    -4.9004 H       
  47 H47            2.5772     1.5892    -1.4464 H       
  48 H48            4.2272     1.3950    -0.8057 H       
  49 H49            3.6553    -0.8741    -0.0008 H       
  50 H50            3.3673    -0.7370    -1.7518 H       
@<TRIPOS>BOND
   1    1    2 1
   2    1   26 1
   3    1   31 1
   4    1   32 1
   5    2    3 1
   6    2   33 1
   7    2   34 1
   8    3    4 1
   9    3   28 1
  10    4    5 1
  11    4   35 1
  12    4   36 1
  13    5    6 ar
  14    5    7 ar
  15    6    8 ar
  16    6   37 1
  17    7   10 ar
  18    7   38 1
  19    8    9 ar
  20    8   39 1
  21    9   10 ar
  22    9   11 1
  23   10   14 1
  24   11   12 1
  25   11   19 1
  26   12   13 2
  27   12   40 1
  28   13   14 1
  29   13   16 1
  30   14   15 2
  31   16   17 2
  32   16   18 am
  33   18   41 1
  34   18   42 1
  35   19   20 ar
  36   19   24 ar
  37   20   21 ar
  38   20   43 1
  39   21   22 ar
  40   21   44 1
  41   22   23 ar
  42   22   25 1
  43   23   24 ar
  44   23   45 1
  45   24   46 1
  46   26   27 1
  47   26   29 1
  48   26   30 1
  49   27   28 1
  50   27   47 1
  51   27   48 1
  52   28   49 1
  53   28   50 1

#	End of record

