#	Name: ASD01884751
#	Creating user name:	WinNT
#	Creation time:	15. 06. 2019 19:48

#	Modifying user name:	WinNT
#	Modification time:	15. 06. 2019 19:48

#	Program:	/corina/corina34_cracker 3.40 0067  02.08.2006

@<TRIPOS>MOLECULE
ASD01884751
  35   37    0    0    0
SMALL
NO_CHARGES


@<TRIPOS>ATOM
   1 C1            -0.0167     1.3822     0.0096 C.2     
   2 C2             0.0021    -0.0041     0.0020 C.2     
   3 C3            -1.2256    -0.7034     0.0105 C.2     
   4 C4            -2.3885    -0.0171     0.0257 C.2     
   5 N5            -2.3980     1.3417     0.0327 N.am    
   6 C6            -1.2514     2.0462     0.0309 C.2     
   7 O7            -1.2865     3.2666     0.0376 O.2     
   8 H8            -1.2340    -1.7834     0.0044 H       
   9 C9             1.2882    -0.7400    -0.0152 C.ar    
  10 H10            0.9065     1.9425     0.0038 H       
  11 C11           -3.6791     2.0521     0.0483 C.3     
  12 C12           -4.1051     2.2886     1.4743 C.ar    
  13 C13           -3.7197     3.4440     2.1279 C.ar    
  14 C14           -4.1094     3.6621     3.4365 C.ar    
  15 C15           -4.8846     2.7250     4.0924 C.ar    
  16 C16           -5.2717     1.5673     3.4384 C.ar    
  17 C17           -4.8857     1.3527     2.1264 C.ar    
  18 F18           -6.0297     0.6505     4.0787 F       
  19 C19            1.6539    -1.5359     1.0699 C.ar    
  20 C20            2.1350    -0.6439    -1.1190 C.ar    
  21 C21            3.3311    -1.3319    -1.1295 C.ar    
  22 C22            3.6906    -2.1161    -0.0480 C.ar    
  23 C23            2.8526    -2.2191     1.0479 C.ar    
  24 H24           -3.3244    -0.5560     0.0321 H       
  25 H25           -3.5700     3.0092    -0.4618 H       
  26 H26           -4.4333     1.4526    -0.4616 H       
  27 H27           -3.1134     4.1768     1.6162 H       
  28 H28           -3.8074     4.5650     3.9463 H       
  29 H29           -5.1883     2.8953     5.1147 H       
  30 H30           -5.1870     0.4502     1.6154 H       
  31 H31            1.0005    -1.6171     1.9259 H       
  32 H32            1.8550    -0.0326    -1.9642 H       
  33 H33            3.9877    -1.2583    -1.9838 H       
  34 H34            4.6276    -2.6530    -0.0609 H       
  35 H35            3.1386    -2.8328     1.8892 H       
@<TRIPOS>BOND
   1    1    2 2
   2    1   10 1
   3    1    6 1
   4    2    3 1
   5    2    9 1
   6    3    4 2
   7    3    8 1
   8    4    5 1
   9    4   24 1
  10    5    6 am
  11    5   11 1
  12    6    7 2
  13    9   19 ar
  14    9   20 ar
  15   11   12 1
  16   11   25 1
  17   11   26 1
  18   12   13 ar
  19   12   17 ar
  20   13   14 ar
  21   13   27 1
  22   14   15 ar
  23   14   28 1
  24   15   16 ar
  25   15   29 1
  26   16   17 ar
  27   16   18 1
  28   17   30 1
  29   19   23 ar
  30   19   31 1
  31   20   21 ar
  32   20   32 1
  33   21   22 ar
  34   21   33 1
  35   22   23 ar
  36   22   34 1
  37   23   35 1

#	End of record

