#	Name: ASD01913497
#	Creating user name:	WinNT
#	Creation time:	15. 06. 2019 20:01

#	Modifying user name:	WinNT
#	Modification time:	15. 06. 2019 20:01

#	Program:	/corina/corina34_cracker 3.40 0067  02.08.2006

@<TRIPOS>MOLECULE
ASD01913497
  34   36    0    0    0
SMALL
NO_CHARGES


@<TRIPOS>ATOM
   1 C1             0.3894     0.4708     1.3148 C.ar    
   2 C2            -0.0494    -0.0157     0.0877 C.ar    
   3 C3             0.7291     0.2353    -1.0376 C.ar    
   4 N4             1.8510     0.9229    -0.9016 N.ar    
   5 C5             2.2331     1.3674     0.2788 C.ar    
   6 N6             1.5233     1.1501     1.3678 N.ar    
   7 C7            -1.1279    -2.0698    -0.1114 C.ar    
   8 C8             0.1094    -2.7125    -0.1232 C.ar    
   9 C9             0.1535    -4.0871    -0.2225 C.ar    
  10 N10           -0.9563    -4.7968    -0.3059 N.ar    
  11 C11           -2.1518    -4.2258    -0.2982 C.ar    
  12 C12           -2.2771    -2.8471    -0.2009 C.ar    
  13 N13           -3.2948    -5.0176    -0.3886 N.am    
  14 C14           -3.1808    -6.3442    -0.5977 C.2     
  15 O15           -1.2086    -0.7187    -0.0094 O.3     
  16 C16           -4.3915    -7.1662    -0.8057 C.ar    
  17 O17           -2.0825    -6.8645    -0.6152 O.2     
  18 C18           -4.2769    -8.5403    -1.0225 C.ar    
  19 C19           -5.4108    -9.3023    -1.2161 C.ar    
  20 C20           -6.6595    -8.7078    -1.1957 C.ar    
  21 C21           -6.7808    -7.3451    -0.9816 C.ar    
  22 C22           -5.6548    -6.5726    -0.7804 C.ar    
  23 Br23          -8.4928    -6.5424    -0.9563 Br      
  24 H24           -0.1894     0.3003     2.2105 H       
  25 H25            0.4223    -0.1261    -2.0079 H       
  26 H26            3.1546     1.9253     0.3560 H       
  27 H27            1.0228    -2.1402    -0.0558 H       
  28 H28            1.1092    -4.5899    -0.2325 H       
  29 H29           -3.2531    -2.3847    -0.1948 H       
  30 H30           -4.1725    -4.6140    -0.3010 H       
  31 H31           -3.3026    -9.0060    -1.0391 H       
  32 H32           -5.3230   -10.3655    -1.3843 H       
  33 H33           -7.5438    -9.3089    -1.3478 H       
  34 H34           -5.7502    -5.5099    -0.6131 H       
@<TRIPOS>BOND
   1    1    2 ar
   2    1    6 ar
   3    1   24 1
   4    2    3 ar
   5    2   15 1
   6    3    4 ar
   7    3   25 1
   8    4    5 ar
   9    5    6 ar
  10    5   26 1
  11    7    8 ar
  12    7   12 ar
  13    7   15 1
  14    8    9 ar
  15    8   27 1
  16    9   10 ar
  17    9   28 1
  18   10   11 ar
  19   11   12 ar
  20   11   13 1
  21   12   29 1
  22   13   14 am
  23   13   30 1
  24   14   16 1
  25   14   17 2
  26   16   18 ar
  27   16   22 ar
  28   18   19 ar
  29   18   31 1
  30   19   20 ar
  31   19   32 1
  32   20   21 ar
  33   20   33 1
  34   21   22 ar
  35   21   23 1
  36   22   34 1

#	End of record

