#	Name: ASD01150569
#	Creating user name:	WinNT
#	Creation time:	15. 06. 2019 19:04

#	Modifying user name:	WinNT
#	Modification time:	15. 06. 2019 19:04

#	Program:	/corina/corina34_cracker 3.40 0067  02.08.2006

@<TRIPOS>MOLECULE
ASD01150569
  49   51    0    0    0
SMALL
NO_CHARGES


@<TRIPOS>ATOM
   1 C1             0.4933     1.3919    -0.9465 C.ar    
   2 C2             0.4639     0.0109    -0.9224 C.ar    
   3 C3             1.9479     0.0102     0.9677 C.ar    
   4 C4             1.9789     1.3966     0.9446 C.ar    
   5 C5             1.2508     2.0887    -0.0132 C.ar    
   6 N6             1.2801     3.4880    -0.0392 N.am    
   7 C7             0.1264     4.1736    -0.1217 C.2     
   8 N8             0.1176     5.5193    -0.1489 N.am    
   9 C9             1.2789     6.2039    -0.0931 C.2     
  10 C10            2.5443     5.4601    -0.0027 C.2     
  11 N11            2.5098     4.1538     0.0269 N.2     
  12 O12            1.2793     7.4207    -0.1176 O.2     
  13 C13           -1.1539     6.2413    -0.2397 C.3     
  14 O14           -0.9269     3.5677    -0.1731 O.2     
  15 C15           -1.6752     6.5169     1.1471 C.ar    
  16 O16            3.7301     6.1204     0.0551 O.3     
  17 C17            4.9130     5.3233     0.1416 C.3     
  18 C18            1.1883    -0.6824     0.0308 C.ar    
  19 C19           -1.3235     7.6865     1.7990 C.ar    
  20 C20           -1.8015     7.9414     3.0731 C.ar    
  21 C21           -2.6311     7.0290     3.6968 C.ar    
  22 C22           -2.9855     5.8571     3.0465 C.ar    
  23 C23           -2.5097     5.6039     1.7664 C.ar    
  24 N24            2.6816    -0.6915     1.9324 N.am    
  25 C25            2.9446    -0.1217     3.1251 C.2     
  26 C26            3.6402    -0.9142     4.2018 C.3     
  27 O27            2.6215     1.0290     3.3320 O.2     
  28 F28           -2.8540     4.4627     1.1305 F       
  29 O29           -3.8019     4.9585     3.6595 O.3     
  30 C30           -4.2573     5.2868     4.9736 C.3     
  31 F31           -0.5125     8.5800     1.1913 F       
  32 F32            1.1575    -2.0329     0.0519 F       
  33 H33           -0.0696     1.9304    -1.6945 H       
  34 H34           -0.1260    -0.5284    -1.6487 H       
  35 H35            2.5683     1.9367     1.6708 H       
  36 H36           -0.9996     7.1844    -0.7640 H       
  37 H37           -1.8772     5.6360    -0.7861 H       
  38 H38            4.9801     4.6767    -0.7333 H       
  39 H39            5.7870     5.9733     0.1810 H       
  40 H40            4.8740     4.7119     1.0431 H       
  41 H41           -1.5254     8.8541     3.5803 H       
  42 H42           -3.0030     7.2288     4.6909 H       
  43 H43            3.0005    -1.5876     1.7421 H       
  44 H44            3.8502    -1.9189     3.8351 H       
  45 H45            4.5754    -0.4219     4.4685 H       
  46 H46            2.9981    -0.9749     5.0805 H       
  47 H47           -3.4000     5.4035     5.6366 H       
  48 H48           -4.8206     6.2194     4.9405 H       
  49 H49           -4.8986     4.4880     5.3460 H       
@<TRIPOS>BOND
   1    1    2 ar
   2    1    5 ar
   3    1   33 1
   4    2   18 ar
   5    2   34 1
   6    3    4 ar
   7    3   24 1
   8    3   18 ar
   9    4    5 ar
  10    4   35 1
  11    5    6 1
  12    6    7 am
  13    6   11 1
  14    7    8 am
  15    7   14 2
  16    8    9 am
  17    8   13 1
  18    9   10 1
  19    9   12 2
  20   10   11 2
  21   10   16 1
  22   13   15 1
  23   13   36 1
  24   13   37 1
  25   15   19 ar
  26   15   23 ar
  27   16   17 1
  28   17   38 1
  29   17   39 1
  30   17   40 1
  31   18   32 1
  32   19   20 ar
  33   19   31 1
  34   20   21 ar
  35   20   41 1
  36   21   22 ar
  37   21   42 1
  38   22   23 ar
  39   22   29 1
  40   23   28 1
  41   24   25 am
  42   24   43 1
  43   25   26 1
  44   25   27 2
  45   26   44 1
  46   26   45 1
  47   26   46 1
  48   29   30 1
  49   30   47 1
  50   30   48 1
  51   30   49 1

#	End of record

