#	Name: ASD00170698
#	Creating user name:	WinNT
#	Creation time:	15. 06. 2019 18:32

#	Modifying user name:	WinNT
#	Modification time:	15. 06. 2019 18:32

#	Program:	/corina/corina34_cracker 3.40 0067  02.08.2006

@<TRIPOS>MOLECULE
ASD00170698
  48   50    0    0    0
SMALL
NO_CHARGES


@<TRIPOS>ATOM
   1 Cl1           -3.8961     5.8811    -5.1115 Cl      
   2 C2            -2.8256     5.9501    -3.7466 C.ar    
   3 C3            -1.6308     6.6435    -3.8398 C.ar    
   4 C4            -0.7726     6.7035    -2.7561 C.ar    
   5 C5            -1.1024     6.0717    -1.5751 C.ar    
   6 C6            -2.3054     5.3707    -1.4738 C.ar    
   7 C7            -3.1699     5.3182    -2.5680 C.ar    
   8 C8            -2.6645     4.6906    -0.2103 C.2     
   9 O9            -1.8692     4.6584     0.7111 O.2     
  10 C10           -3.9757     4.0565    -0.0676 C.2     
  11 C11           -4.1990     2.7123    -0.2734 C.2     
  12 N12           -3.2278     1.8042    -0.6359 N.pl3   
  13 S13           -5.8389     2.3251    -0.0188 S.3     
  14 C14           -6.2532     3.9844     0.3727 C.2     
  15 C15           -5.1718     4.7712     0.3096 C.2     
  16 C16           -5.2019     6.2509     0.5935 C.3     
  17 C17           -4.9604     6.4889     2.0855 C.3     
  18 C18           -3.6138     5.8839     2.4871 C.3     
  19 C19           -4.9480     7.9929     2.3665 C.3     
  20 C20           -6.0781     5.8281     2.8948 C.3     
  21 C21           -7.6099     4.4493     0.7290 C.ar    
  22 C22           -8.1714     5.5444     0.0700 C.ar    
  23 C23           -9.4386     5.9729     0.4072 C.ar    
  24 C24          -10.1528     5.3198     1.3961 C.ar    
  25 C25           -9.6022     4.2337     2.0532 C.ar    
  26 C26           -8.3381     3.7916     1.7222 C.ar    
  27 H27           -1.3674     7.1394    -4.7624 H       
  28 H28            0.1579     7.2460    -2.8352 H       
  29 H29           -0.4310     6.1189    -0.7305 H       
  30 H30           -4.1020     4.7775    -2.4959 H       
  31 H31           -2.3289     2.1092    -0.8354 H       
  32 H32           -3.4432     0.8601    -0.6917 H       
  33 H33           -4.4227     6.7477     0.0155 H       
  34 H34           -6.1750     6.6547     0.3140 H       
  35 H35           -2.8175     6.3547     1.9105 H       
  36 H36           -3.4417     6.0535     3.5500 H       
  37 H37           -3.6226     4.8125     2.2869 H       
  38 H38           -5.9074     8.4239     2.0804 H       
  39 H39           -4.7760     8.1625     3.4294 H       
  40 H40           -4.1518     8.4636     1.7899 H       
  41 H41           -6.0165     4.7456     2.7830 H       
  42 H42           -5.9693     6.0914     3.9469 H       
  43 H43           -7.0448     6.1765     2.5312 H       
  44 H44           -7.6149     6.0553    -0.7018 H       
  45 H45           -9.8741     6.8202    -0.1015 H       
  46 H46          -11.1443     5.6595     1.6566 H       
  47 H47          -10.1649     3.7285     2.8242 H       
  48 H48           -7.9094     2.9438     2.2358 H       
@<TRIPOS>BOND
   1    1    2 1
   2    2    3 ar
   3    2    7 ar
   4    3    4 ar
   5    3   27 1
   6    4    5 ar
   7    4   28 1
   8    5    6 ar
   9    5   29 1
  10    6    7 ar
  11    6    8 1
  12    7   30 1
  13    8    9 2
  14    8   10 1
  15   10   11 2
  16   10   15 1
  17   11   12 1
  18   11   13 1
  19   12   31 1
  20   12   32 1
  21   13   14 1
  22   14   15 2
  23   14   21 1
  24   15   16 1
  25   16   17 1
  26   16   33 1
  27   16   34 1
  28   17   18 1
  29   17   19 1
  30   17   20 1
  31   18   35 1
  32   18   36 1
  33   18   37 1
  34   19   38 1
  35   19   39 1
  36   19   40 1
  37   20   41 1
  38   20   42 1
  39   20   43 1
  40   21   22 ar
  41   21   26 ar
  42   22   23 ar
  43   22   44 1
  44   23   24 ar
  45   23   45 1
  46   24   25 ar
  47   24   46 1
  48   25   26 ar
  49   25   47 1
  50   26   48 1

#	End of record

