#	Name: ASD01208717
#	Creating user name:	WinNT
#	Creation time:	15. 06. 2019 19:10

#	Modifying user name:	WinNT
#	Modification time:	15. 06. 2019 19:10

#	Program:	/corina/corina34_cracker 3.40 0067  02.08.2006

@<TRIPOS>MOLECULE
ASD01208717
  58   61    0    0    0
SMALL
NO_CHARGES


@<TRIPOS>ATOM
   1 C1            -0.0677     1.5256     0.0005 C.2     
   2 C2            -0.1566     0.0558     0.0223 C.ar    
   3 C3             1.0126    -0.7210     0.0231 C.ar    
   4 C4             0.9198    -2.1020     0.0436 C.ar    
   5 C5            -0.3250    -2.7140     0.0634 C.ar    
   6 C6            -1.4849    -1.9452     0.0626 C.ar    
   7 C7            -1.4059    -0.5716     0.0482 C.ar    
   8 O8             1.0204     2.0688    -0.0169 O.2     
   9 N9            -1.1921     2.2686    -0.0058 N.am    
  10 S10           -2.4480     4.7170    -0.0365 S.3     
  11 C11           -1.1083     3.6550    -0.0264 C.2     
  12 N12           -0.0027     4.3319    -0.0407 N.2     
  13 C13           -0.1080     5.6476    -0.0595 C.2     
  14 C14           -1.3619     6.1039    -0.0611 C.2     
  15 O15           -0.4120    -4.0682     0.0830 O.3     
  16 C16           -1.6012    -6.0314     0.8394 C.3     
  17 C17           -1.7165    -4.6324     0.2308 C.3     
  18 C18           -2.3897    -4.7265    -1.1400 C.3     
  19 O19           -0.9178    -6.8930    -0.0731 O.3     
  20 C20           -0.7562    -8.2312     0.4012 C.3     
  21 O21            2.2288    -0.1207     0.0033 O.3     
  22 C22            3.3307    -0.9091     0.0993 C.ar    
  23 C23            3.7557    -1.6425    -1.0013 C.ar    
  24 C24            4.8735    -2.4431    -0.9080 C.ar    
  25 C25            5.5790    -2.5166     0.2947 C.ar    
  26 C26            5.1486    -1.7779     1.3987 C.ar    
  27 C27            4.0330    -0.9754     1.2960 C.ar    
  28 O28            7.5503    -3.5395     1.4915 O.3     
  29 C29            6.7778    -3.3743     0.3991 C.2     
  30 N30            7.2888    -4.1177    -0.5546 N.2     
  31 N31            8.3293    -4.7271    -0.1058 N.2     
  32 C32            8.5222    -4.3999     1.1411 C.2     
  33 C33            9.6342    -4.8957     2.0292 C.3     
  34 C34           10.8377    -3.9585     1.9110 C.3     
  35 H35            1.8169    -2.7033     0.0439 H       
  36 H36           -2.4506    -2.4284     0.0781 H       
  37 H37           -2.3085     0.0215     0.0525 H       
  38 H38           -2.0599     1.8353     0.0041 H       
  39 H39            0.7512     6.3018    -0.0720 H       
  40 H40           -1.6591     7.1421    -0.0747 H       
  41 H41           -1.0432    -5.9761     1.7741 H       
  42 H42           -2.5983    -6.4262     1.0343 H       
  43 H43           -2.3142    -3.9991     0.8864 H       
  44 H44           -3.3848    -5.1569    -1.0273 H       
  45 H45           -2.4719    -3.7298    -1.5736 H       
  46 H46           -1.7921    -5.3598    -1.7956 H       
  47 H47           -0.1806    -8.2216     1.3268 H       
  48 H48           -1.7357    -8.6716     0.5871 H       
  49 H49           -0.2288    -8.8212    -0.3484 H       
  50 H50            3.2093    -1.5854    -1.9311 H       
  51 H51            5.2032    -3.0133    -1.7639 H       
  52 H52            5.6917    -1.8322     2.3306 H       
  53 H53            3.7020    -0.4003     2.1481 H       
  54 H54            9.2909    -4.9174     3.0635 H       
  55 H55            9.9244    -5.9003     1.7216 H       
  56 H56           10.5475    -2.9539     2.2186 H       
  57 H57           11.6420    -4.3171     2.5533 H       
  58 H58           11.1811    -3.9368     0.8767 H       
@<TRIPOS>BOND
   1    1    2 1
   2    1    8 2
   3    1    9 am
   4    2    3 ar
   5    2    7 ar
   6    3    4 ar
   7    3   21 1
   8    4    5 ar
   9    4   35 1
  10    5    6 ar
  11    5   15 1
  12    6    7 ar
  13    6   36 1
  14    7   37 1
  15    9   11 1
  16    9   38 1
  17   10   11 1
  18   10   14 1
  19   11   12 2
  20   12   13 1
  21   13   14 2
  22   13   39 1
  23   14   40 1
  24   15   17 1
  25   16   17 1
  26   16   19 1
  27   16   41 1
  28   16   42 1
  29   17   18 1
  30   17   43 1
  31   18   44 1
  32   18   45 1
  33   18   46 1
  34   19   20 1
  35   20   47 1
  36   20   48 1
  37   20   49 1
  38   21   22 1
  39   22   23 ar
  40   22   27 ar
  41   23   24 ar
  42   23   50 1
  43   24   25 ar
  44   24   51 1
  45   25   26 ar
  46   25   29 1
  47   26   27 ar
  48   26   52 1
  49   27   53 1
  50   28   29 1
  51   28   32 1
  52   29   30 2
  53   30   31 1
  54   31   32 2
  55   32   33 1
  56   33   34 1
  57   33   54 1
  58   33   55 1
  59   34   56 1
  60   34   57 1
  61   34   58 1

#	End of record

