#	Name: ASD07930567
#	Creating user name:	WinNT
#	Creation time:	15. 06. 2019 21:12

#	Modifying user name:	WinNT
#	Modification time:	15. 06. 2019 21:12

#	Program:	/corina/corina34_cracker 3.40 0067  02.08.2006

@<TRIPOS>MOLECULE
ASD07930567
  46   47    0    0    0
SMALL
NO_CHARGES


@<TRIPOS>ATOM
   1 C1            -0.0347     1.4582     0.0429 C.3     
   2 N2             0.7951    -0.4132    -2.1298 N.2     
   3 N3            -0.8906    -1.7834    -1.2682 N.pl3   
   4 C4            -0.9152    -2.8270    -0.2380 C.3     
   5 C5            -1.2303    -2.1885     1.1218 C.3     
   6 S6             0.0057    -0.8913     1.4438 S.o2    
   7 N7            -0.0144    -0.0066     0.0319 N.am    
   8 C8            -0.0115    -0.7259    -1.1548 C.2     
   9 C9             0.4498    -3.5152    -0.1752 C.3     
  10 C10           -1.9766    -3.8422    -0.5753 C.ar    
  11 C11           -2.8070    -3.6380    -1.6596 C.ar    
  12 C12           -3.7846    -4.5741    -1.9703 C.ar    
  13 C13           -3.9250    -5.7136    -1.1898 C.ar    
  14 C14           -3.0924    -5.9141    -0.1060 C.ar    
  15 C15           -2.1148    -4.9822     0.1990 C.ar    
  16 O16           -0.4581     0.0117     2.4382 O.2     
  17 O17            1.3136    -1.4439     1.5008 O.2     
  18 F18           -1.3015    -5.1801     1.2594 F       
  19 N19           -4.6279    -4.3687    -3.0692 N.am    
  20 C20           -5.0476    -5.4190    -3.8022 C.2     
  21 O21           -4.6189    -6.5298    -3.5711 O.2     
  22 C22           -6.0494    -5.2131    -4.9090 C.3     
  23 C23           -7.3794    -4.7475    -4.3130 C.3     
  24 C24           -6.5837    -6.2806    -6.9875 C.3     
  25 O25           -6.2457    -6.4436    -5.6087 O.3     
  26 H26            0.9878     1.8358     0.0399 H       
  27 H27           -0.5586     1.8210    -0.8415 H       
  28 H28           -0.5485     1.8078     0.9384 H       
  29 H29            1.4068     0.3333    -2.0326 H       
  30 H30           -1.4885    -1.8386    -2.0300 H       
  31 H31           -2.2273    -1.7485     1.0989 H       
  32 H32           -1.1803    -2.9460     1.9039 H       
  33 H33            1.2163    -2.7803     0.0708 H       
  34 H34            0.4309    -4.2907     0.5906 H       
  35 H35            0.6748    -3.9650    -1.1423 H       
  36 H36           -2.6964    -2.7508    -2.2654 H       
  37 H37           -4.6849    -6.4425    -1.4295 H       
  38 H38           -3.2013    -6.8004     0.5015 H       
  39 H39           -4.9101    -3.4705    -3.3027 H       
  40 H40           -5.6767    -4.4574    -5.6005 H       
  41 H41           -7.2296    -3.8089    -3.7793 H       
  42 H42           -8.1040    -4.5986    -5.1136 H       
  43 H43           -7.7520    -5.5032    -3.6215 H       
  44 H44           -7.5103    -5.7124    -7.0698 H       
  45 H45           -5.7827    -5.7451    -7.4971 H       
  46 H46           -6.7160    -7.2600    -7.4474 H       
@<TRIPOS>BOND
   1    1    7 1
   2    1   26 1
   3    1   27 1
   4    1   28 1
   5    2    8 2
   6    2   29 1
   7    3    4 1
   8    3    8 1
   9    3   30 1
  10    4    5 1
  11    4    9 1
  12    4   10 1
  13    5    6 1
  14    5   31 1
  15    5   32 1
  16    6    7 am
  17    6   16 2
  18    6   17 2
  19    7    8 1
  20    9   33 1
  21    9   34 1
  22    9   35 1
  23   10   11 ar
  24   10   15 ar
  25   11   12 ar
  26   11   36 1
  27   12   13 ar
  28   12   19 1
  29   13   14 ar
  30   13   37 1
  31   14   15 ar
  32   14   38 1
  33   15   18 1
  34   19   20 am
  35   19   39 1
  36   20   21 2
  37   20   22 1
  38   22   23 1
  39   22   25 1
  40   22   40 1
  41   23   41 1
  42   23   42 1
  43   23   43 1
  44   24   25 1
  45   24   44 1
  46   24   45 1
  47   24   46 1

#	End of record

