#	Name: ASD01915716
#	Creating user name:	WinNT
#	Creation time:	15. 06. 2019 20:06

#	Modifying user name:	WinNT
#	Modification time:	15. 06. 2019 20:06

#	Program:	/corina/corina34_cracker 3.40 0067  02.08.2006

@<TRIPOS>MOLECULE
ASD01915716
  45   48    0    0    0
SMALL
NO_CHARGES


@<TRIPOS>ATOM
   1 C1            -0.0166     1.3729     0.0096 C.2     
   2 N2             0.0021    -0.0041     0.0020 N.pl3   
   3 C3            -1.2433    -0.7807    -0.0179 C.3     
   4 C4            -2.3411     0.0068     0.6954 C.3     
   5 N5            -2.4042     1.3989     0.2636 N.am    
   6 C6            -1.2810     2.1228     0.0392 C.2     
   7 C7             1.2847     1.7904    -0.0006 C.2     
   8 C8             2.0437     0.6125    -0.0024 C.2     
   9 N9             1.2133    -0.4042     0.0045 N.2     
  10 C10            3.5483     0.5278    -0.0114 C.3     
  11 O11            4.0996     1.8461    -0.0181 O.3     
  12 C12            5.4525     1.9480    -0.0267 C.ar    
  13 O13           -1.3167     3.3269    -0.1281 O.2     
  14 N14            6.1920     0.8513    -0.0285 N.ar    
  15 C15            6.0476     3.2027    -0.0391 C.ar    
  16 C16            7.4289     3.2929    -0.0478 C.ar    
  17 C17            8.1689     2.1188    -0.0437 C.ar    
  18 C18            7.5102     0.9052    -0.0368 C.ar    
  19 C19           -3.6437     1.9955     0.0779 C.ar    
  20 N20           -3.6997     3.2591    -0.3141 N.ar    
  21 N21           -4.7404     1.2853     0.2918 N.ar    
  22 C22           -5.9406     1.8203     0.1245 C.ar    
  23 C23           -6.0424     3.1383    -0.2789 C.ar    
  24 C24           -4.8691     3.8584    -0.5010 C.ar    
  25 C25           -7.3907     3.7808    -0.4795 C.3     
  26 O26           -4.9222     5.1533    -0.8970 O.3     
  27 C27           -3.6753     5.8203    -1.1030 C.3     
  28 H28           -1.5404    -0.9656    -1.0502 H       
  29 H29           -1.0875    -1.7313     0.4922 H       
  30 H30           -3.3017    -0.4679     0.4953 H       
  31 H31           -2.1537    -0.0208     1.7688 H       
  32 H32            1.6488     2.8072    -0.0066 H       
  33 H33            3.8876    -0.0035     0.8778 H       
  34 H34            3.8767    -0.0079    -0.9021 H       
  35 H35            5.4409     4.0962    -0.0424 H       
  36 H36            7.9195     4.2550    -0.0579 H       
  37 H37            9.2483     2.1540    -0.0505 H       
  38 H38            8.0814    -0.0114    -0.0335 H       
  39 H39           -6.8296     1.2331     0.3011 H       
  40 H40           -7.7187     4.2363     0.4549 H       
  41 H41           -7.3167     4.5472    -1.2510 H       
  42 H42           -8.1118     3.0237    -0.7874 H       
  43 H43           -3.1059     5.8214    -0.1736 H       
  44 H44           -3.1086     5.3008    -1.8757 H       
  45 H45           -3.8603     6.8476    -1.4170 H       
@<TRIPOS>BOND
   1    1    2 1
   2    1    7 2
   3    1    6 1
   4    2    3 1
   5    2    9 1
   6    3    4 1
   7    3   28 1
   8    3   29 1
   9    4    5 1
  10    4   30 1
  11    4   31 1
  12    5    6 am
  13    5   19 1
  14    6   13 2
  15    7    8 1
  16    7   32 1
  17    8    9 2
  18    8   10 1
  19   10   11 1
  20   10   33 1
  21   10   34 1
  22   11   12 1
  23   12   14 ar
  24   12   15 ar
  25   14   18 ar
  26   15   16 ar
  27   15   35 1
  28   16   17 ar
  29   16   36 1
  30   17   18 ar
  31   17   37 1
  32   18   38 1
  33   19   20 ar
  34   19   21 ar
  35   20   24 ar
  36   21   22 ar
  37   22   23 ar
  38   22   39 1
  39   23   24 ar
  40   23   25 1
  41   24   26 1
  42   25   40 1
  43   25   41 1
  44   25   42 1
  45   26   27 1
  46   27   43 1
  47   27   44 1
  48   27   45 1

#	End of record

