#	Name: ASD01478097
#	Creating user name:	WinNT
#	Creation time:	15. 06. 2019 19:21

#	Modifying user name:	WinNT
#	Modification time:	15. 06. 2019 19:21

#	Program:	/corina/corina34_cracker 3.40 0067  02.08.2006

@<TRIPOS>MOLECULE
ASD01478097
  61   62    0    0    0
SMALL
NO_CHARGES


@<TRIPOS>ATOM
   1 C1             1.5843     2.3123     0.1325 C.2     
   2 N2             1.4063     1.0029    -0.1327 N.am    
   3 O3             2.6807     2.7228     0.4579 O.2     
   4 O4             0.5484     3.1665     0.0317 O.3     
   5 C5             2.5348     0.0745    -0.0288 C.3     
   6 C6             3.0791     0.0914     1.4010 C.3     
   7 C7             1.9762    -0.3358     2.3716 C.3     
   8 N8             2.4585    -0.2017     3.7484 N.am    
   9 S9             2.1334     1.1751     4.6092 S.o2    
  10 O10            3.1326     1.2645     5.6156 O.2     
  11 O11            1.8992     2.2001     3.6532 O.2     
  12 C12            0.6049     0.9177     5.4472 C.ar    
  13 C13            0.5975     0.3684     6.7160 C.ar    
  14 C14           -0.5995     0.1656     7.3751 C.ar    
  15 C15           -1.7948     0.5135     6.7628 C.ar    
  16 C16           -1.7846     1.0645     5.4896 C.ar    
  17 C17           -0.5846     1.2706     4.8370 C.ar    
  18 O18           -2.9737     0.3146     7.4089 O.3     
  19 C19           -4.1648     0.6964     6.7178 C.3     
  20 C20            3.2283    -1.2856     4.3637 C.3     
  21 C21            2.3472    -2.5303     4.4878 C.3     
  22 C22            3.1873    -3.7005     5.0032 C.3     
  23 C23            1.2058    -2.2514     5.4677 C.3     
  24 O24            4.1798    -0.8142     1.5023 O.3     
  25 C25            3.6377     0.5017    -0.9994 C.3     
  26 C26            3.1402     0.3676    -2.4156 C.ar    
  27 C27            2.5071     1.4322    -3.0295 C.ar    
  28 C28            2.0507     1.3092    -4.3285 C.ar    
  29 C29            2.2278     0.1217    -5.0138 C.ar    
  30 C30            2.8616    -0.9425    -4.4002 C.ar    
  31 C31            3.3218    -0.8180    -3.1027 C.ar    
  32 H32            0.5310     0.6753    -0.3924 H       
  33 H33            0.7247     4.0959     0.2319 H       
  34 H34            2.2009    -0.9325    -0.2787 H       
  35 H35            3.4129     1.0984     1.6508 H       
  36 H36            1.1014     0.2987     2.2296 H       
  37 H37            1.7064    -1.3745     2.1807 H       
  38 H38            1.5282     0.0974     7.1921 H       
  39 H39           -0.6049    -0.2638     8.3660 H       
  40 H40           -2.7138     1.3362     5.0108 H       
  41 H41           -0.5758     1.7039     3.8478 H       
  42 H42           -5.0317     0.4847     7.3437 H       
  43 H43           -4.1294     1.7628     6.4948 H       
  44 H44           -4.2418     0.1330     5.7879 H       
  45 H45            4.0945    -1.5141     3.7427 H       
  46 H46            3.5627    -0.9770     5.3542 H       
  47 H47            1.9342    -2.7820     3.5110 H       
  48 H48            3.6004    -3.4489     5.9801 H       
  49 H49            2.5596    -4.5873     5.0916 H       
  50 H50            4.0006    -3.8992     4.3051 H       
  51 H51            1.6168    -1.8978     6.4133 H       
  52 H52            0.5467    -1.4900     5.0506 H       
  53 H53            0.6405    -3.1679     5.6374 H       
  54 H54            3.9424    -1.7400     1.3548 H       
  55 H55            3.9095     1.5395    -0.8065 H       
  56 H56            4.5114    -0.1347    -0.8595 H       
  57 H57            2.3688     2.3599    -2.4941 H       
  58 H58            1.5556     2.1407    -4.8079 H       
  59 H59            1.8706     0.0254    -6.0285 H       
  60 H60            2.9996    -1.8703    -4.9354 H       
  61 H61            3.8203    -1.6483    -2.6245 H       
@<TRIPOS>BOND
   1    1    2 am
   2    1    3 2
   3    1    4 1
   4    2    5 1
   5    2   32 1
   6    4   33 1
   7    5    6 1
   8    5   25 1
   9    5   34 1
  10    6    7 1
  11    6   24 1
  12    6   35 1
  13    7    8 1
  14    7   36 1
  15    7   37 1
  16    8    9 am
  17    8   20 1
  18    9   10 2
  19    9   11 2
  20    9   12 1
  21   12   13 ar
  22   12   17 ar
  23   13   14 ar
  24   13   38 1
  25   14   15 ar
  26   14   39 1
  27   15   16 ar
  28   15   18 1
  29   16   17 ar
  30   16   40 1
  31   17   41 1
  32   18   19 1
  33   19   42 1
  34   19   43 1
  35   19   44 1
  36   20   21 1
  37   20   45 1
  38   20   46 1
  39   21   22 1
  40   21   23 1
  41   21   47 1
  42   22   48 1
  43   22   49 1
  44   22   50 1
  45   23   51 1
  46   23   52 1
  47   23   53 1
  48   24   54 1
  49   25   26 1
  50   25   55 1
  51   25   56 1
  52   26   27 ar
  53   26   31 ar
  54   27   28 ar
  55   27   57 1
  56   28   29 ar
  57   28   58 1
  58   29   30 ar
  59   29   59 1
  60   30   31 ar
  61   30   60 1
  62   31   61 1

#	End of record

