#	Name: ASD01140268
#	Creating user name:	WinNT
#	Creation time:	15. 06. 2019 19:00

#	Modifying user name:	WinNT
#	Modification time:	15. 06. 2019 19:00

#	Program:	/corina/corina34_cracker 3.40 0067  02.08.2006

@<TRIPOS>MOLECULE
ASD01140268
  44   47    0    0    0
SMALL
NO_CHARGES


@<TRIPOS>ATOM
   1 C1             0.2318     1.7413     0.4607 C.ar    
   2 C2             0.1139     0.3490     0.4595 C.ar    
   3 C3             1.2453    -0.4428     0.3080 C.ar    
   4 C4             2.5079     0.1448     0.1557 C.ar    
   5 C5             2.6067     1.5384     0.1354 C.ar    
   6 C6             1.4688     2.3235     0.2997 C.ar    
   7 C7             3.6700    -0.7456     0.0564 C.2     
   8 N8             4.6881    -0.6301    -0.7215 N.2     
   9 C9             4.8025     0.4700    -1.6860 C.3     
  10 C10            4.8104     1.7612    -0.9094 C.2     
  11 N11            3.8256     2.1873    -0.0805 N.pl3   
  12 C12           -1.1722    -0.2613     0.6148 C.1     
  13 C13            4.2316     3.3650     0.4675 C.2     
  14 C14            3.6713    -1.9184     0.9614 C.ar    
  15 C15            4.3805    -3.0686     0.6159 C.ar    
  16 C16            4.3783    -4.1576     1.4631 C.ar    
  17 C17            3.6744    -4.1103     2.6532 C.ar    
  18 C18            2.9690    -2.9723     3.0015 C.ar    
  19 C19            2.9679    -1.8749     2.1650 C.ar    
  20 C20            5.7864     2.7097    -0.8942 C.2     
  21 N21            5.3946     3.6809    -0.0274 N.2     
  22 C22            7.0355     2.6882    -1.6721 C.2     
  23 O23            7.9179     3.7008    -1.5583 O.3     
  24 O24            7.2715     1.7573    -2.4172 O.2     
  25 C25            9.1284     3.6129    -2.3553 C.3     
  26 C26           10.0007     4.8427    -2.0951 C.3     
  27 C27           -2.2266    -0.7616     0.7421 C.1     
  28 H28           -0.6456     2.3590     0.5832 H       
  29 H29            1.1510    -1.5187     0.3079 H       
  30 H30            1.5573     3.3999     0.3004 H       
  31 H31            5.7302     0.3722    -2.2497 H       
  32 H32            3.9518     0.4539    -2.3674 H       
  33 H33            3.6798     3.9432     1.1939 H       
  34 H34            4.9301    -3.1069    -0.3131 H       
  35 H35            4.9268    -5.0490     1.1966 H       
  36 H36            3.6753    -4.9654     3.3130 H       
  37 H37            2.4214    -2.9412     3.9318 H       
  38 H38            2.4171    -0.9869     2.4381 H       
  39 H39            9.6789     2.7127    -2.0820 H       
  40 H40            8.8653     3.5711    -3.4123 H       
  41 H41            9.4503     5.7430    -2.3684 H       
  42 H42           10.2638     4.8845    -1.0382 H       
  43 H43           10.9094     4.7768    -2.6935 H       
  44 H44           -3.1696    -1.2091     0.8559 H       
@<TRIPOS>BOND
   1    1    2 ar
   2    1    6 ar
   3    1   28 1
   4    2    3 ar
   5    2   12 1
   6    3    4 ar
   7    3   29 1
   8    4    5 ar
   9    4    7 1
  10    5    6 ar
  11    5   11 1
  12    6   30 1
  13    7    8 2
  14    7   14 1
  15    8    9 1
  16    9   10 1
  17    9   31 1
  18    9   32 1
  19   10   11 1
  20   10   20 2
  21   11   13 1
  22   12   27 3
  23   13   21 2
  24   13   33 1
  25   14   15 ar
  26   14   19 ar
  27   15   16 ar
  28   15   34 1
  29   16   17 ar
  30   16   35 1
  31   17   18 ar
  32   17   36 1
  33   18   19 ar
  34   18   37 1
  35   19   38 1
  36   20   21 1
  37   20   22 1
  38   22   23 1
  39   22   24 2
  40   23   25 1
  41   25   26 1
  42   25   39 1
  43   25   40 1
  44   26   41 1
  45   26   42 1
  46   26   43 1
  47   27   44 1

#	End of record

