#	Name: ASD03090639
#	Creating user name:	WinNT
#	Creation time:	15. 06. 2019 20:29

#	Modifying user name:	WinNT
#	Modification time:	15. 06. 2019 20:29

#	Program:	/corina/corina34_cracker 3.40 0067  02.08.2006

@<TRIPOS>MOLECULE
ASD03090639
  37   38    0    0    0
SMALL
NO_CHARGES


@<TRIPOS>ATOM
   1 N1            -0.0162     1.3436     0.0094 N.am    
   2 C2             0.0193     0.1476     0.6299 C.2     
   3 O3             1.0728    -0.2854     1.0556 O.2     
   4 N4            -1.1129    -0.5683     0.7785 N.am    
   5 S5            -2.4311    -2.8123     1.6750 S.3     
   6 C6            -1.0762    -1.8017     1.4183 C.2     
   7 N7            -0.0098    -2.3533     1.9068 N.2     
   8 C8            -0.1572    -3.5321     2.4828 C.2     
   9 C9            -1.4072    -3.9982     2.4806 C.2     
  10 C10           -1.8637    -5.3099     3.0655 C.3     
  11 C11            1.1453     2.1273    -0.0707 C.ar    
  12 C12            1.0454     3.5109    -0.1992 C.ar    
  13 C13            2.1933     4.2814    -0.2781 C.ar    
  14 C14            3.4397     3.6746    -0.2290 C.ar    
  15 C15            3.5374     2.2972    -0.1015 C.ar    
  16 C16            2.3934     1.5259    -0.0164 C.ar    
  17 N17            4.8688     1.6523    -0.0504 N.pl3   
  18 O18            4.9557     0.4426     0.0616 O.2     
  19 O19            5.8775     2.3314    -0.1203 O.2     
  20 O20            4.5669     4.4311    -0.3065 O.3     
  21 C21            4.3927     5.8434    -0.4372 C.3     
  22 O22           -0.1773     4.1038    -0.2476 O.3     
  23 C23           -0.2038     5.5263    -0.3802 C.3     
  24 H24           -0.8435     1.6608    -0.3852 H       
  25 H25           -1.9532    -0.2229     0.4389 H       
  26 H26            0.6675    -4.0752     2.9203 H       
  27 H27           -2.9376    -5.4207     2.9150 H       
  28 H28           -1.3412    -6.1293     2.5718 H       
  29 H29           -1.6426    -5.3284     4.1326 H       
  30 H30            2.1181     5.3541    -0.3781 H       
  31 H31            2.4717     0.4538     0.0877 H       
  32 H32            3.8330     6.0577    -1.3477 H       
  33 H33            3.8438     6.2231     0.4245 H       
  34 H34            5.3683     6.3267    -0.4882 H       
  35 H35            0.3083     5.9799     0.4685 H       
  36 H36            0.2982     5.8146    -1.3038 H       
  37 H37           -1.2380     5.8696    -0.4063 H       
@<TRIPOS>BOND
   1    1    2 am
   2    1   11 1
   3    1   24 1
   4    2    3 2
   5    2    4 am
   6    4    6 1
   7    4   25 1
   8    5    6 1
   9    5    9 1
  10    6    7 2
  11    7    8 1
  12    8    9 2
  13    8   26 1
  14    9   10 1
  15   10   27 1
  16   10   28 1
  17   10   29 1
  18   11   12 ar
  19   11   16 ar
  20   12   13 ar
  21   12   22 1
  22   13   14 ar
  23   13   30 1
  24   14   15 ar
  25   14   20 1
  26   15   16 ar
  27   15   17 1
  28   16   31 1
  29   17   18 2
  30   17   19 2
  31   20   21 1
  32   21   32 1
  33   21   33 1
  34   21   34 1
  35   22   23 1
  36   23   35 1
  37   23   36 1
  38   23   37 1

#	End of record

