#	Name: ASD03320032
#	Creating user name:	WinNT
#	Creation time:	15. 06. 2019 20:36

#	Modifying user name:	WinNT
#	Modification time:	15. 06. 2019 20:36

#	Program:	/corina/corina34_cracker 3.40 0067  02.08.2006

@<TRIPOS>MOLECULE
ASD03320032
  60   64    0    0    0
SMALL
NO_CHARGES


@<TRIPOS>ATOM
   1 C1            -0.0867     0.3402     0.8196 C.ar    
   2 C2            -0.0291    -1.0414     0.6383 C.ar    
   3 C3             1.0704     1.0870     0.7973 C.ar    
   4 C4             2.3016     0.4602     0.5932 C.ar    
   5 C5             2.3582    -0.9233     0.4117 C.ar    
   6 C6             1.2000    -1.6683     0.4344 C.ar    
   7 C7             3.5440     1.2609     0.5686 C.2     
   8 N8             3.5728     2.4406    -0.0825 N.am    
   9 O9             4.5398     0.8552     1.1357 O.2     
  10 C10           -1.2757    -1.8448     0.6630 C.ar    
  11 C11           -1.2310    -3.2248     0.4833 C.ar    
  12 C12           -2.4323    -3.9333     0.5159 C.ar    
  13 N13           -3.5675    -3.2696     0.7159 N.ar    
  14 C14           -3.5675    -1.9620     0.8819 C.ar    
  15 N15           -2.4562    -1.2570     0.8632 N.ar    
  16 N16           -2.4428    -5.3090     0.3419 N.pl3   
  17 C17           -3.6353    -6.0236     0.4920 C.ar    
  18 C18           -3.8518    -7.1786    -0.2478 C.ar    
  19 C19           -5.0317    -7.8830    -0.0973 C.ar    
  20 C20           -5.9968    -7.4370     0.7900 C.ar    
  21 C21           -5.7827    -6.2862     1.5280 C.ar    
  22 C22           -4.6031    -5.5824     1.3858 C.ar    
  23 C23            4.7631     3.3003    -0.0206 C.3     
  24 C24            5.2270     3.5988    -1.4516 C.3     
  25 N25            4.0688     4.0482    -2.2367 N.am    
  26 C26            2.8784     3.1885    -2.2986 C.3     
  27 C27            2.4166     2.8875    -0.8721 C.3     
  28 C28            4.0975     5.2279    -2.8878 C.2     
  29 C29            5.3403     6.0253    -2.9168 C.ar    
  30 O30            3.1004     5.6357    -3.4513 O.2     
  31 C31            5.3157     7.3780    -2.5636 C.ar    
  32 C32            6.4845     8.1171    -2.5931 C.ar    
  33 C33            7.6728     7.5208    -2.9704 C.ar    
  34 C34            7.7028     6.1817    -3.3211 C.ar    
  35 C35            6.5472     5.4306    -3.2915 C.ar    
  36 F36            4.1541     7.9612    -2.1951 F       
  37 Cl37          -7.4782    -8.3228     0.9763 Cl      
  38 Cl38          -5.3038    -9.3271    -1.0215 Cl      
  39 H39           -1.0393     0.8253     0.9730 H       
  40 H40            1.0256     2.1569     0.9374 H       
  41 H41            3.3098    -1.4088     0.2534 H       
  42 H42            1.2436    -2.7383     0.2941 H       
  43 H43           -0.2917    -3.7330     0.3226 H       
  44 H44           -4.5072    -1.4543     1.0421 H       
  45 H45           -1.6229    -5.7755     0.1160 H       
  46 H46           -3.0994    -7.5260    -0.9403 H       
  47 H47           -6.5372    -5.9404     2.2190 H       
  48 H48           -4.4367    -4.6845     1.9624 H       
  49 H49            4.5147     4.2332     0.4855 H       
  50 H50            5.5572     2.7871     0.5219 H       
  51 H51            5.9840     4.3828    -1.4348 H       
  52 H52            5.6427     2.6951    -1.8974 H       
  53 H53            2.0844     3.7017    -2.8410 H       
  54 H54            3.1268     2.2556    -2.8047 H       
  55 H55            1.6597     2.1034    -0.8904 H       
  56 H56            2.0011     3.7900    -0.4239 H       
  57 H57            6.4684     9.1622    -2.3212 H       
  58 H58            8.5825     8.1024    -2.9922 H       
  59 H59            8.6354     5.7230    -3.6148 H       
  60 H60            6.5735     4.3863    -3.5656 H       
@<TRIPOS>BOND
   1    1    2 ar
   2    1    3 ar
   3    1   39 1
   4    2   10 1
   5    2    6 ar
   6    3    4 ar
   7    3   40 1
   8    4    5 ar
   9    4    7 1
  10    5    6 ar
  11    5   41 1
  12    6   42 1
  13    7    8 am
  14    7    9 2
  15    8   23 1
  16    8   27 1
  17   10   11 ar
  18   10   15 ar
  19   11   12 ar
  20   11   43 1
  21   12   13 ar
  22   12   16 1
  23   13   14 ar
  24   14   15 ar
  25   14   44 1
  26   16   17 1
  27   16   45 1
  28   17   18 ar
  29   17   22 ar
  30   18   19 ar
  31   18   46 1
  32   19   20 ar
  33   19   38 1
  34   20   21 ar
  35   20   37 1
  36   21   22 ar
  37   21   47 1
  38   22   48 1
  39   23   24 1
  40   23   49 1
  41   23   50 1
  42   24   25 1
  43   24   51 1
  44   24   52 1
  45   25   26 1
  46   25   28 am
  47   26   27 1
  48   26   53 1
  49   26   54 1
  50   27   55 1
  51   27   56 1
  52   28   29 1
  53   28   30 2
  54   29   31 ar
  55   29   35 ar
  56   31   32 ar
  57   31   36 1
  58   32   33 ar
  59   32   57 1
  60   33   34 ar
  61   33   58 1
  62   34   35 ar
  63   34   59 1
  64   35   60 1

#	End of record

