#	Name: ASD03540464
#	Creating user name:	WinNT
#	Creation time:	15. 06. 2019 20:43

#	Modifying user name:	WinNT
#	Modification time:	15. 06. 2019 20:43

#	Program:	/corina/corina34_cracker 3.40 0067  02.08.2006

@<TRIPOS>MOLECULE
ASD03540464
  41   43    0    0    0
SMALL
NO_CHARGES


@<TRIPOS>ATOM
   1 N1            -0.0161     1.3395     0.0094 N.am    
   2 C2             0.0021    -0.0041     0.0020 C.2     
   3 N3             1.1389    -0.7173    -0.0126 N.am    
   4 C4             2.3459    -0.1107    -0.0209 C.2     
   5 C5             2.3856     1.3633    -0.0133 C.ar    
   6 C6             3.5869     2.0604    -0.0206 C.ar    
   7 C7             3.5657     3.4551    -0.0124 C.ar    
   8 C8             2.3429     4.1385     0.0033 C.ar    
   9 C9             1.1618     3.4521     0.0104 C.ar    
  10 C10            1.1635     2.0628     0.0020 C.ar    
  11 C11            4.8323     4.2113    -0.0199 C.2     
  12 O12            5.8932     3.6192    -0.0332 O.2     
  13 O13            4.8127     5.5585    -0.0121 O.3     
  14 O14            3.3720    -0.7627    -0.0337 O.2     
  15 O15           -1.0577    -0.5997     0.0093 O.2     
  16 C16           -1.2992     2.0465     0.0193 C.3     
  17 C17            1.0696    -2.1807    -0.0194 C.3     
  18 C18            1.0320    -2.6753    -1.4424 C.ar    
  19 C19            2.2119    -2.9584    -2.1060 C.ar    
  20 C20            2.1796    -3.4124    -3.4119 C.ar    
  21 C21            0.9603    -3.5835    -4.0559 C.ar    
  22 C22           -0.2199    -3.2985    -3.3870 C.ar    
  23 C23           -0.1818    -2.8504    -2.0799 C.ar    
  24 O24            0.9249    -4.0292    -5.3398 O.3     
  25 C25           -0.3638    -4.1814    -5.9384 C.3     
  26 F26            3.3320    -3.6887    -4.0607 F       
  27 H27            4.5268     1.5286    -0.0320 H       
  28 H28            2.3339     5.2185     0.0102 H       
  29 H29            0.2255     3.9901     0.0226 H       
  30 H30            5.6678     6.0101    -0.0175 H       
  31 H31           -2.1134     1.3218     0.0192 H       
  32 H32           -1.3653     2.6671     0.9130 H       
  33 H33           -1.3737     2.6767    -0.8669 H       
  34 H34            1.9463    -2.5883     0.4839 H       
  35 H35            0.1684    -2.5041     0.5016 H       
  36 H36            3.1589    -2.8246    -1.6043 H       
  37 H37           -1.1688    -3.4307    -3.8854 H       
  38 H38           -1.1016    -2.6326    -1.5575 H       
  39 H39           -0.2493    -4.5425    -6.9605 H       
  40 H40           -0.9491    -4.8987    -5.3631 H       
  41 H41           -0.8758    -3.2193    -5.9482 H       
@<TRIPOS>BOND
   1    1    2 am
   2    1   10 1
   3    1   16 1
   4    2    3 am
   5    2   15 2
   6    3    4 am
   7    3   17 1
   8    4    5 1
   9    4   14 2
  10    5    6 ar
  11    5   10 ar
  12    6    7 ar
  13    6   27 1
  14    7    8 ar
  15    7   11 1
  16    8    9 ar
  17    8   28 1
  18    9   10 ar
  19    9   29 1
  20   11   12 2
  21   11   13 1
  22   13   30 1
  23   16   31 1
  24   16   32 1
  25   16   33 1
  26   17   18 1
  27   17   34 1
  28   17   35 1
  29   18   19 ar
  30   18   23 ar
  31   19   20 ar
  32   19   36 1
  33   20   21 ar
  34   20   26 1
  35   21   22 ar
  36   21   24 1
  37   22   23 ar
  38   22   37 1
  39   23   38 1
  40   24   25 1
  41   25   39 1
  42   25   40 1
  43   25   41 1

#	End of record

