#	Name: ASD02500885
#	Creating user name:	WinNT
#	Creation time:	15. 06. 2019 20:23

#	Modifying user name:	WinNT
#	Modification time:	15. 06. 2019 20:23

#	Program:	/corina/corina34_cracker 3.40 0067  02.08.2006

@<TRIPOS>MOLECULE
ASD02500885
  47   49    0    0    0
SMALL
NO_CHARGES


@<TRIPOS>ATOM
   1 S1            -0.0295     1.6326    -0.8410 S.3     
   2 C2            -0.0026    -0.0647    -0.3227 C.2     
   3 C3             1.4215    -0.4184    -0.3336 C.2     
   4 N4             2.2359     0.5568    -0.7009 N.am    
   5 C5             1.7291     1.7519    -1.0250 C.2     
   6 S6             2.6109     3.1323    -1.5231 S.2     
   7 C7            -1.0566    -0.8537     0.0080 C.2     
   8 O8             1.8231    -1.5258    -0.0272 O.2     
   9 C9             3.6824     0.3303    -0.7521 C.3     
  10 C10            4.0653    -0.1630    -2.1236 C.2     
  11 O11            3.2170    -0.3102    -2.9713 O.2     
  12 O12            5.3488    -0.4388    -2.4035 O.3     
  13 C13           -2.4009    -0.2737     0.1210 C.ar    
  14 C14           -3.5311    -1.0946     0.0179 C.ar    
  15 C15           -4.7922    -0.5431     0.1251 C.ar    
  16 C16           -4.9389     0.8279     0.3350 C.ar    
  17 C17           -3.8197     1.6426     0.4374 C.ar    
  18 C18           -2.5568     1.1004     0.3380 C.ar    
  19 O19           -5.8919    -1.3370     0.0254 O.3     
  20 C20           -5.6677    -2.7317    -0.1900 C.3     
  21 O21           -6.1812     1.3678     0.4391 O.3     
  22 C22           -6.2596     2.7784     0.6538 C.3     
  23 C23           -7.7056     3.1934     0.7427 C.ar    
  24 C24           -8.3474     3.2048     1.9670 C.ar    
  25 C25           -9.6738     3.5854     2.0486 C.ar    
  26 C26          -10.3583     3.9551     0.9060 C.ar    
  27 C27           -9.7163     3.9445    -0.3182 C.ar    
  28 C28           -8.3887     3.5681    -0.3992 C.ar    
  29 N29          -11.7789     4.3617     0.9932 N.pl3   
  30 O30          -12.3447     4.3706     2.0718 O.2     
  31 O31          -12.3820     4.6873    -0.0136 O.2     
  32 H32           -0.9065    -1.9079     0.1879 H       
  33 H33            4.2040     1.2643    -0.5431 H       
  34 H34            3.9599    -0.4154    -0.0072 H       
  35 H35            5.5458    -0.7524    -3.2968 H       
  36 H36           -3.4164    -2.1560    -0.1454 H       
  37 H37           -3.9390     2.7036     0.5999 H       
  38 H38           -1.6878     1.7367     0.4181 H       
  39 H39           -5.1199    -2.8720    -1.1218 H       
  40 H40           -5.0869    -3.1385     0.6378 H       
  41 H41           -6.6255    -3.2486    -0.2503 H       
  42 H42           -5.7506     3.0333     1.5833 H       
  43 H43           -5.7825     3.2993    -0.1764 H       
  44 H44           -7.8126     2.9160     2.8598 H       
  45 H45          -10.1754     3.5937     3.0050 H       
  46 H46          -10.2512     4.2329    -1.2110 H       
  47 H47           -7.8871     3.5598    -1.3556 H       
@<TRIPOS>BOND
   1    1    2 1
   2    1    5 1
   3    2    3 1
   4    2    7 2
   5    3    4 am
   6    3    8 2
   7    4    5 am
   8    4    9 1
   9    5    6 2
  10    7   13 1
  11    7   32 1
  12    9   10 1
  13    9   33 1
  14    9   34 1
  15   10   11 2
  16   10   12 1
  17   12   35 1
  18   13   14 ar
  19   13   18 ar
  20   14   15 ar
  21   14   36 1
  22   15   16 ar
  23   15   19 1
  24   16   17 ar
  25   16   21 1
  26   17   18 ar
  27   17   37 1
  28   18   38 1
  29   19   20 1
  30   20   39 1
  31   20   40 1
  32   20   41 1
  33   21   22 1
  34   22   23 1
  35   22   42 1
  36   22   43 1
  37   23   24 ar
  38   23   28 ar
  39   24   25 ar
  40   24   44 1
  41   25   26 ar
  42   25   45 1
  43   26   27 ar
  44   26   29 1
  45   27   28 ar
  46   27   46 1
  47   28   47 1
  48   29   30 2
  49   29   31 2

#	End of record

