#	Name: ASD05430709
#	Creating user name:	WinNT
#	Creation time:	15. 06. 2019 21:00

#	Modifying user name:	WinNT
#	Modification time:	15. 06. 2019 21:00

#	Program:	/corina/corina34_cracker 3.40 0067  02.08.2006

@<TRIPOS>MOLECULE
ASD05430709
  54   58    0    0    0
SMALL
NO_CHARGES


@<TRIPOS>ATOM
   1 C1            -0.0169     1.3921     0.0097 C.ar    
   2 C2             0.0021    -0.0041     0.0020 C.ar    
   3 C3             1.1838     2.1041     0.0021 C.ar    
   4 C4             2.3874     1.4240    -0.0131 C.ar    
   5 C5             2.3997     0.0299    -0.0207 C.ar    
   6 C6             1.2047    -0.6774    -0.0126 C.ar    
   7 N7             3.6200    -0.6588    -0.0360 N.pl3   
   8 C8             3.9896    -1.6810     0.7995 C.2     
   9 C9             4.6580    -0.4436    -0.8854 C.2     
  10 N10            5.6165    -1.2791    -0.5905 N.2     
  11 C11            5.2335    -2.0494     0.4386 C.2     
  12 C12            6.0537    -3.1388     1.0802 C.3     
  13 C13           -3.4685     2.5417     0.0318 C.2     
  14 C14           -2.7449     3.7403     0.0346 C.2     
  15 C15           -3.4818     5.0019     0.0445 C.2     
  16 N16           -4.7848     4.9851     0.0504 N.2     
  17 N17           -5.5009     3.7857     0.0475 N.am    
  18 C18           -4.8751     2.5922     0.0335 C.2     
  19 O19           -5.5253     1.5593     0.0313 O.2     
  20 C20           -6.9653     3.8261     0.0549 C.3     
  21 C21           -7.4490     4.5546     1.3104 C.3     
  22 C22           -7.4539     4.5567    -1.1693 C.ar    
  23 C23           -8.5656     4.0968    -1.8503 C.ar    
  24 C24           -9.0148     4.7662    -2.9728 C.ar    
  25 C25           -8.3509     5.8978    -3.4153 C.ar    
  26 C26           -7.2376     6.3574    -2.7325 C.ar    
  27 C27           -6.7934     5.6894    -1.6071 C.ar    
  28 F28           -8.7889     6.5527    -4.5128 F       
  29 N29           -2.5378     1.5277     0.0224 N.pl3   
  30 C30           -1.3060     2.1149     0.0197 C.2     
  31 N31           -1.4425     3.4229     0.0270 N.2     
  32 O32            3.5586     2.1144    -0.0210 O.3     
  33 C33            3.4709     3.5407    -0.0130 C.3     
  34 H34           -0.9259    -0.5566     0.0079 H       
  35 H35            1.1725     3.1840     0.0076 H       
  36 H36            1.2176    -1.7573    -0.0182 H       
  37 H37            3.3969    -2.1084     1.5947 H       
  38 H38            4.6855     0.2949    -1.6730 H       
  39 H39            6.6453    -2.7174     1.8929 H       
  40 H40            5.3903    -3.9084     1.4748 H       
  41 H41            6.7186    -3.5785     0.3369 H       
  42 H42           -2.9502     5.9420     0.0472 H       
  43 H43           -7.3569     2.8089     0.0515 H       
  44 H44           -8.5386     4.5847     1.3160 H       
  45 H45           -7.0957     4.0262     2.1959 H       
  46 H46           -7.0574     5.5718     1.3139 H       
  47 H47           -9.0830     3.2139    -1.5051 H       
  48 H48           -9.8831     4.4065    -3.5048 H       
  49 H49           -6.7190     7.2400    -3.0767 H       
  50 H50           -5.9250     6.0478    -1.0743 H       
  51 H51           -2.7226     0.5754     0.0189 H       
  52 H52            2.9271     3.8763    -0.8960 H       
  53 H53            2.9444     3.8673     0.8838 H       
  54 H54            4.4743     3.9665    -0.0206 H       
@<TRIPOS>BOND
   1    1    2 ar
   2    1    3 ar
   3    1   30 1
   4    2    6 ar
   5    2   34 1
   6    3    4 ar
   7    3   35 1
   8    4    5 ar
   9    4   32 1
  10    5    6 ar
  11    5    7 1
  12    6   36 1
  13    7    8 1
  14    7    9 1
  15    8   11 2
  16    8   37 1
  17    9   10 2
  18    9   38 1
  19   10   11 1
  20   11   12 1
  21   12   39 1
  22   12   40 1
  23   12   41 1
  24   13   14 2
  25   13   29 1
  26   13   18 1
  27   14   15 1
  28   14   31 1
  29   15   16 2
  30   15   42 1
  31   16   17 1
  32   17   18 am
  33   17   20 1
  34   18   19 2
  35   20   21 1
  36   20   22 1
  37   20   43 1
  38   21   44 1
  39   21   45 1
  40   21   46 1
  41   22   23 ar
  42   22   27 ar
  43   23   24 ar
  44   23   47 1
  45   24   25 ar
  46   24   48 1
  47   25   26 ar
  48   25   28 1
  49   26   27 ar
  50   26   49 1
  51   27   50 1
  52   29   30 1
  53   29   51 1
  54   30   31 2
  55   32   33 1
  56   33   52 1
  57   33   53 1
  58   33   54 1

#	End of record

