#	Name: ASD02588003
#	Creating user name:	WinNT
#	Creation time:	15. 06. 2019 20:25

#	Modifying user name:	WinNT
#	Modification time:	15. 06. 2019 20:25

#	Program:	/corina/corina34_cracker 3.40 0067  02.08.2006

@<TRIPOS>MOLECULE
ASD02588003
  44   45    0    0    0
SMALL
NO_CHARGES


@<TRIPOS>ATOM
   1 P1            -0.0180     1.4758     0.0102 P.3     
   2 O2             0.0021    -0.0041     0.0020 O.2     
   3 O3             1.4924     2.0330    -0.0013 O.3     
   4 O4            -0.7967     2.0091    -1.2942 O.3     
   5 O5            -0.7716     1.9950     1.3348 O.3     
   6 P6            -0.8355     1.5534    -2.8378 P.3     
   7 O7            -1.3133     0.1555    -2.9277 O.2     
   8 O8            -1.8337     2.5154    -3.6565 O.3     
   9 P9            -2.3028     2.5913    -5.1948 P.3     
  10 O10           -2.6240     1.2306    -5.6803 O.2     
  11 O11           -3.6090     3.5252    -5.3120 O.3     
  12 O12           -1.1163     3.2136    -6.0876 O.3     
  13 O13           -4.1236     3.6637    -6.6809 O.3     
  14 C14           -0.3850     1.6043     2.6538 C.3     
  15 O15           -2.6517     1.7682     3.5484 O.3     
  16 C16           -1.3055     2.2756     3.6750 C.3     
  17 C17           -0.8769     1.9035     5.1117 C.3     
  18 C18           -2.2118     1.7590     5.8762 C.3     
  19 C19           -3.2890     2.0610     4.8109 C.3     
  20 O20           -0.0829     2.9452     5.6831 O.3     
  21 C21           -4.3235    -0.1388     4.9050 C.2     
  22 N22           -5.3671    -0.9480     5.0780 N.2     
  23 C23           -6.5674    -0.4556     5.3551 C.2     
  24 C24           -6.7394     0.9394     5.4675 C.2     
  25 C25           -5.6687     1.7488     5.2890 C.2     
  26 N26           -4.4556     1.1965     5.0059 N.am    
  27 O27           -3.2289    -0.6163     4.6560 O.2     
  28 N28           -7.6381    -1.3011     5.5312 N.pl3   
  29 H29            1.5557     2.9980     0.0033 H       
  30 H30            0.4691     1.6441    -3.3911 H       
  31 H31           -0.8533     4.1063    -5.8251 H       
  32 H32           -4.9082     4.2246    -6.7513 H       
  33 H33           -0.4642     0.5214     2.7499 H       
  34 H34            0.6450     1.9108     2.8364 H       
  35 H35           -1.2939     3.3577     3.5438 H       
  36 H36           -0.3308     0.9602     5.1152 H       
  37 H37           -2.3257     0.7443     6.2575 H       
  38 H38           -2.2662     2.4822     6.6899 H       
  39 H39           -3.5817     3.1101     4.8539 H       
  40 H40            0.2137     2.7638     6.5854 H       
  41 H41           -7.7102     1.3558     5.6923 H       
  42 H42           -5.7752     2.8205     5.3697 H       
  43 H43           -7.5167    -2.2603     5.4529 H       
  44 H44           -8.5145    -0.9381     5.7337 H       
@<TRIPOS>BOND
   1    1    2 2
   2    1    3 1
   3    1    4 1
   4    1    5 1
   5    3   29 1
   6    4    6 1
   7    5   14 1
   8    6    7 2
   9    6    8 1
  10    6   30 1
  11    8    9 1
  12    9   10 2
  13    9   11 1
  14    9   12 1
  15   11   13 1
  16   12   31 1
  17   13   32 1
  18   14   16 1
  19   14   33 1
  20   14   34 1
  21   15   16 1
  22   15   19 1
  23   16   17 1
  24   16   35 1
  25   17   18 1
  26   17   20 1
  27   17   36 1
  28   18   19 1
  29   18   37 1
  30   18   38 1
  31   19   26 1
  32   19   39 1
  33   20   40 1
  34   21   22 1
  35   21   26 am
  36   21   27 2
  37   22   23 2
  38   23   24 1
  39   23   28 1
  40   24   25 2
  41   24   41 1
  42   25   26 1
  43   25   42 1
  44   28   43 1
  45   28   44 1

#	End of record

