#	Name: ASD03091678
#	Creating user name:	WinNT
#	Creation time:	15. 06. 2019 20:31

#	Modifying user name:	WinNT
#	Modification time:	15. 06. 2019 20:31

#	Program:	/corina/corina34_cracker 3.40 0067  02.08.2006

@<TRIPOS>MOLECULE
ASD03091678
  44   46    0    0    0
SMALL
NO_CHARGES


@<TRIPOS>ATOM
   1 Cl1            0.0000     0.0000     0.0000 Cl      
   2 H2             0.0000     1.3700     0.0000 H       
   3 C3            14.5217    10.3506     6.5706 C.ar    
   4 C4            14.5407     8.9497     6.5629 C.ar    
   5 C5            15.7615     8.2692     6.5480 C.ar    
   6 C6            16.9472     8.9739     6.5409 C.ar    
   7 C7            16.9312    10.3687     6.5485 C.ar    
   8 C8            15.7550    11.0470     6.5625 C.ar    
   9 S9            12.8904     8.3381     6.5753 S.3     
  10 C10           12.2345     9.9656     6.5903 C.2     
  11 C11           13.2184    10.8713     6.5915 C.2     
  12 C12           10.8018    10.2887     6.6057 C.2     
  13 O13           10.4402    11.4504     6.6150 O.2     
  14 N14            9.8877     9.2984     6.6097 N.am    
  15 N15            6.9512     8.8769     8.4056 N.3     
  16 C16            7.9996     9.8491     8.0681 C.3     
  17 C17            8.4587     9.6206     6.6250 C.3     
  18 C18            7.6619     8.4522     6.0313 C.3     
  19 C19            6.1689     8.8000     6.0867 C.3     
  20 C20            5.7732     9.0505     7.5445 C.3     
  21 C21            7.4618     7.5012     8.3270 C.3     
  22 C22            7.9062     7.2061     6.8917 C.3     
  23 O23           18.1317     8.3089     6.5269 O.3     
  24 C24           19.3207     9.1015     6.5202 C.3     
  25 H25           15.7764     7.1893     6.5424 H       
  26 H26           17.8633    10.9142     6.5433 H       
  27 H27           15.7600    12.1270     6.5679 H       
  28 H28           13.0230    11.9334     6.6002 H       
  29 H29           10.1760     8.3722     6.6023 H       
  30 H30            7.6041    10.8598     8.1681 H       
  31 H31            8.8455     9.7208     8.7434 H       
  32 H32            8.2790    10.5211     6.0377 H       
  33 H33            7.9676     8.2757     5.0000 H       
  34 H34            5.9809     9.6977     5.4978 H       
  35 H35            5.5856     7.9703     5.6873 H       
  36 H36            5.0000     8.3407     7.8386 H       
  37 H37            5.3932    10.0668     7.6488 H       
  38 H38            8.3112     7.3895     9.0010 H       
  39 H39            6.6748     6.8042     8.6147 H       
  40 H40            7.3299     6.3700     6.4956 H       
  41 H41            8.9675     6.9578     6.8817 H       
  42 H42           20.1930     8.4480     6.5091 H       
  43 H43           19.3300     9.7351     5.6333 H       
  44 H44           19.3460     9.7261     7.4132 H       
@<TRIPOS>BOND
   1    1    2 1
   2    3    4 ar
   3    3    8 ar
   4    3   11 1
   5    4    5 ar
   6    4    9 1
   7    5    6 ar
   8    5   25 1
   9    6    7 ar
  10    6   23 1
  11    7    8 ar
  12    7   26 1
  13    8   27 1
  14    9   10 1
  15   10   11 2
  16   10   12 1
  17   11   28 1
  18   12   13 2
  19   12   14 am
  20   14   17 1
  21   14   29 1
  22   15   16 1
  23   15   20 1
  24   15   21 1
  25   16   17 1
  26   16   30 1
  27   16   31 1
  28   17   18 1
  29   17   32 1
  30   18   19 1
  31   18   22 1
  32   18   33 1
  33   19   20 1
  34   19   34 1
  35   19   35 1
  36   20   36 1
  37   20   37 1
  38   21   22 1
  39   21   38 1
  40   21   39 1
  41   22   40 1
  42   22   41 1
  43   23   24 1
  44   24   42 1
  45   24   43 1
  46   24   44 1

#	End of record

