#	Name: ASD06710017
#	Creating user name:	WinNT
#	Creation time:	15. 06. 2019 21:08

#	Modifying user name:	WinNT
#	Modification time:	15. 06. 2019 21:08

#	Program:	/corina/corina34_cracker 3.40 0067  02.08.2006

@<TRIPOS>MOLECULE
ASD06710017
 102  105    0    0    0
SMALL
NO_CHARGES


@<TRIPOS>ATOM
   1 C1             1.2936     0.7991    -1.5911 C.ar    
   2 C2             1.4721    -0.5464    -1.8550 C.ar    
   3 C3             2.7432    -1.0904    -1.8562 C.ar    
   4 C4             3.8384    -0.2904    -1.5934 C.ar    
   5 C5             3.6620     1.0598    -1.3282 C.ar    
   6 C6             2.3855     1.6033    -1.3277 C.ar    
   7 O7             4.7378     1.8488    -1.0690 O.3     
   8 C8             4.4810     3.2294    -0.8046 C.3     
   9 C9             5.8030     3.9519    -0.5374 C.3     
  10 C10            5.5417     5.4510    -0.3777 C.3     
  11 O11            6.7865     6.1399    -0.2444 O.3     
  12 C12            6.7317     7.4893    -0.0927 C.ar    
  13 C13            7.9024     8.2215     0.0423 C.ar    
  14 C14            7.8440     9.5931     0.1959 C.ar    
  15 C15            6.6202    10.2362     0.2156 C.ar    
  16 C16            5.4520     9.5088     0.0817 C.ar    
  17 C17            5.5053     8.1376    -0.0783 C.ar    
  18 C18            6.5594    11.7326     0.3838 C.3     
  19 C19            5.8268    12.3401    -0.7847 C.ar    
  20 C20            4.7078    13.1223    -0.5666 C.ar    
  21 C21            4.0345    13.6803    -1.6360 C.ar    
  22 C22            4.4821    13.4553    -2.9297 C.ar    
  23 C23            5.6051    12.6700    -3.1459 C.ar    
  24 C24            6.2782    12.1189    -2.0728 C.ar    
  25 C25            0.2791    -1.4215    -2.1415 C.3     
  26 C26           -0.6922    -1.3387    -0.9923 C.ar    
  27 C27           -2.0115    -0.9980    -1.2268 C.ar    
  28 C28           -2.9038    -0.9214    -0.1750 C.ar    
  29 C29           -2.4751    -1.1867     1.1175 C.ar    
  30 C30           -1.1508    -1.5283     1.3502 C.ar    
  31 C31           -0.2638    -1.6090     0.2942 C.ar    
  32 O32            6.3916     3.4407     0.6602 O.3     
  33 O33            3.8212    14.0027    -3.9835 O.3     
  34 C34            4.3385    13.7286    -5.2870 C.3     
  35 O35           -3.3509    -1.1116     2.1539 O.3     
  36 C36           -2.8397    -1.3977     3.4573 C.3     
  37 C37           -3.9635    -1.2632     4.4868 C.3     
  38 C38           -3.4483    -1.6896     5.8629 C.3     
  39 O39           -4.3989     0.0967     4.5417 O.3     
  40 C40            3.4698    14.4239    -6.3371 C.3     
  41 C41            4.0933    14.2347    -7.7214 C.3     
  42 O42            2.1589    13.8551    -6.3233 O.3     
  43 C43            5.8207    12.0705     1.6803 C.3     
  44 C44           -0.4064    -0.9454    -3.4239 C.3     
  45 C45            7.9802    12.2971     0.4443 C.3     
  46 C46            0.7395    -2.8700    -2.3169 C.3     
  47 O47           -4.5265    -1.6755     6.8006 O.3     
  48 C48           -4.1505    -2.0602     8.1245 C.3     
  49 O49            3.3475    14.9802    -8.6857 O.3     
  50 C50            3.8494    14.8714   -10.0193 C.3     
  51 H51            0.3001     1.2225    -1.5951 H       
  52 H52            2.8800    -2.1417    -2.0623 H       
  53 H53            4.8311    -0.7159    -1.5941 H       
  54 H54            2.2457     2.6542    -1.1219 H       
  55 H55            3.9890     3.6792    -1.6670 H       
  56 H56            3.8355     3.3181     0.0691 H       
  57 H57            6.4819     3.7886    -1.3744 H       
  58 H58            5.0126     5.8231    -1.2551 H       
  59 H59            4.9351     5.6213     0.5117 H       
  60 H60            8.8585     7.7195     0.0277 H       
  61 H61            8.7550    10.1635     0.3010 H       
  62 H62            4.4973    10.0134     0.0981 H       
  63 H63            4.5926     7.5699    -0.1832 H       
  64 H64            4.3596    13.2969     0.4407 H       
  65 H65            3.1603    14.2910    -1.4651 H       
  66 H66            5.9555    12.4933    -4.1521 H       
  67 H67            7.1525    11.5075    -2.2405 H       
  68 H68           -2.3446    -0.7912    -2.2331 H       
  69 H69           -3.9342    -0.6549    -0.3587 H       
  70 H70           -0.8147    -1.7353     2.3555 H       
  71 H71            0.7673    -1.8749     0.4749 H       
  72 H72            5.8413     3.5522     1.4475 H       
  73 H73            5.3609    14.0999    -5.3576 H       
  74 H74            4.3297    12.6529    -5.4626 H       
  75 H75           -2.4473    -2.4144     3.4785 H       
  76 H76           -2.0415    -0.6951     3.6968 H       
  77 H77           -4.7990    -1.9009     4.1980 H       
  78 H78           -3.0346    -2.6961     5.8000 H       
  79 H79           -2.6724    -0.9978     6.1908 H       
  80 H80           -3.7054     0.7220     4.7930 H       
  81 H81            3.4065    15.4880    -6.1095 H       
  82 H82            5.1243    14.5883    -7.7069 H       
  83 H83            4.0755    13.1775    -7.9865 H       
  84 H84            2.1390    12.9082    -6.5182 H       
  85 H85            6.3505    11.6311     2.5255 H       
  86 H86            5.7767    13.1528     1.8020 H       
  87 H87            4.8085    11.6683     1.6372 H       
  88 H88            0.2961    -1.0053    -4.2551 H       
  89 H89           -1.2692    -1.5783    -3.6311 H       
  90 H90           -0.7343     0.0865    -3.2990 H       
  91 H91            8.5064    12.0564    -0.4794 H       
  92 H92            7.9362    13.3794     0.5660 H       
  93 H93            8.5100    11.8577     1.2895 H       
  94 H94            1.2278    -3.2091    -1.4033 H       
  95 H95           -0.1234    -3.5029    -2.5241 H       
  96 H96            1.4420    -2.9299    -3.1481 H       
  97 H97           -3.7514    -3.0744     8.1085 H       
  98 H98           -3.3893    -1.3761     8.4993 H       
  99 H99           -5.0241    -2.0237     8.7753 H       
 100 H100           4.8753    15.2382   -10.0525 H       
 101 H101           3.8265    13.8275   -10.3320 H       
 102 H102           3.2292    15.4655   -10.6905 H       
@<TRIPOS>BOND
   1    1    2 ar
   2    1    6 ar
   3    1   51 1
   4    2    3 ar
   5    2   25 1
   6    3    4 ar
   7    3   52 1
   8    4    5 ar
   9    4   53 1
  10    5    6 ar
  11    5    7 1
  12    6   54 1
  13    7    8 1
  14    8    9 1
  15    8   55 1
  16    8   56 1
  17    9   10 1
  18    9   32 1
  19    9   57 1
  20   10   11 1
  21   10   58 1
  22   10   59 1
  23   11   12 1
  24   12   13 ar
  25   12   17 ar
  26   13   14 ar
  27   13   60 1
  28   14   15 ar
  29   14   61 1
  30   15   16 ar
  31   15   18 1
  32   16   17 ar
  33   16   62 1
  34   17   63 1
  35   18   19 1
  36   18   43 1
  37   18   45 1
  38   19   20 ar
  39   19   24 ar
  40   20   21 ar
  41   20   64 1
  42   21   22 ar
  43   21   65 1
  44   22   23 ar
  45   22   33 1
  46   23   24 ar
  47   23   66 1
  48   24   67 1
  49   25   26 1
  50   25   44 1
  51   25   46 1
  52   26   27 ar
  53   26   31 ar
  54   27   28 ar
  55   27   68 1
  56   28   29 ar
  57   28   69 1
  58   29   30 ar
  59   29   35 1
  60   30   31 ar
  61   30   70 1
  62   31   71 1
  63   32   72 1
  64   33   34 1
  65   34   40 1
  66   34   73 1
  67   34   74 1
  68   35   36 1
  69   36   37 1
  70   36   75 1
  71   36   76 1
  72   37   38 1
  73   37   39 1
  74   37   77 1
  75   38   47 1
  76   38   78 1
  77   38   79 1
  78   39   80 1
  79   40   41 1
  80   40   42 1
  81   40   81 1
  82   41   49 1
  83   41   82 1
  84   41   83 1
  85   42   84 1
  86   43   85 1
  87   43   86 1
  88   43   87 1
  89   44   88 1
  90   44   89 1
  91   44   90 1
  92   45   91 1
  93   45   92 1
  94   45   93 1
  95   46   94 1
  96   46   95 1
  97   46   96 1
  98   47   48 1
  99   48   97 1
 100   48   98 1
 101   48   99 1
 102   49   50 1
 103   50  100 1
 104   50  101 1
 105   50  102 1

#	End of record

