#	Name: ASD01881075
#	Creating user name:	WinNT
#	Creation time:	15. 06. 2019 19:41

#	Modifying user name:	WinNT
#	Modification time:	15. 06. 2019 19:41

#	Program:	/corina/corina34_cracker 3.40 0067  02.08.2006

@<TRIPOS>MOLECULE
ASD01881075
  46   48    0    0    0
SMALL
NO_CHARGES


@<TRIPOS>ATOM
   1 C1            -0.0168     1.3896     0.0097 C.ar    
   2 C2             0.0021    -0.0041     0.0020 C.ar    
   3 C3             1.2025    -0.6930    -0.0126 C.ar    
   4 C4             2.3994     0.0196    -0.0202 C.ar    
   5 C5             2.3726     1.4349    -0.0129 C.ar    
   6 C6             1.1477     2.1058     0.0024 C.ar    
   7 C7             3.7010    -0.6514    -0.0352 C.2     
   8 C8             4.8226     0.0863    -0.0415 C.2     
   9 N9             4.7999     1.4520    -0.0345 N.am    
  10 C10            3.6492     2.1532    -0.0207 C.2     
  11 C11            6.0712     2.1800    -0.0423 C.3     
  12 C12            6.5008     2.4407    -1.4874 C.3     
  13 C13            7.8285     3.2011    -1.4955 C.3     
  14 O14            3.6705     3.3711    -0.0148 O.2     
  15 Cl15           1.1041     3.8412     0.0116 Cl      
  16 O16           -1.1681    -0.6924     0.0095 O.3     
  17 C17           -2.3727     0.0761     0.0250 C.3     
  18 C18           -3.5785    -0.8657     0.0314 C.3     
  19 C19           -4.8683    -0.0429     0.0481 C.3     
  20 C20           -6.0559    -0.9705     0.0545 C.ar    
  21 C21           -6.5977    -1.4090     1.2528 C.ar    
  22 C22           -7.6906    -2.2615     1.2102 C.ar    
  23 C23           -8.1997    -2.6429    -0.0165 C.ar    
  24 N24           -7.6582    -2.2062    -1.1369 N.ar    
  25 C25           -6.6223    -1.3904    -1.1345 C.ar    
  26 H26           -0.9631     1.9102     0.0170 H       
  27 H27            1.2111    -1.7729    -0.0178 H       
  28 H28            3.7581    -1.7299    -0.0407 H       
  29 H29            5.7774    -0.4183    -0.0522 H       
  30 H30            5.9489     3.1303     0.4774 H       
  31 H31            6.8333     1.5858     0.4618 H       
  32 H32            6.6232     1.4904    -2.0071 H       
  33 H33            5.7387     3.0350    -1.9915 H       
  34 H34            7.7061     4.1513    -0.9758 H       
  35 H35            8.5906     2.6068    -0.9915 H       
  36 H36            8.1346     3.3868    -2.5251 H       
  37 H37           -2.3942     0.6999     0.9186 H       
  38 H38           -2.4111     0.7095    -0.8612 H       
  39 H39           -3.5570    -1.4895    -0.8621 H       
  40 H40           -3.5401    -1.4991     0.9177 H       
  41 H41           -4.8897     0.5810     0.9417 H       
  42 H42           -4.9067     0.5905    -0.8381 H       
  43 H43           -6.1783    -1.0945     2.1970 H       
  44 H44           -8.1380    -2.6230     2.1243 H       
  45 H45           -9.0508    -3.3065    -0.0582 H       
  46 H46           -6.2058    -1.0538    -2.0723 H       
@<TRIPOS>BOND
   1    1    2 ar
   2    1    6 ar
   3    1   26 1
   4    2    3 ar
   5    2   16 1
   6    3    4 ar
   7    3   27 1
   8    4    5 ar
   9    4    7 1
  10    5    6 ar
  11    5   10 1
  12    6   15 1
  13    7    8 2
  14    7   28 1
  15    8    9 1
  16    8   29 1
  17    9   10 am
  18    9   11 1
  19   10   14 2
  20   11   12 1
  21   11   30 1
  22   11   31 1
  23   12   13 1
  24   12   32 1
  25   12   33 1
  26   13   34 1
  27   13   35 1
  28   13   36 1
  29   16   17 1
  30   17   18 1
  31   17   37 1
  32   17   38 1
  33   18   19 1
  34   18   39 1
  35   18   40 1
  36   19   20 1
  37   19   41 1
  38   19   42 1
  39   20   21 ar
  40   20   25 ar
  41   21   22 ar
  42   21   43 1
  43   22   23 ar
  44   22   44 1
  45   23   24 ar
  46   23   45 1
  47   24   25 ar
  48   25   46 1

#	End of record

