#	Name: ASD01920078
#	Creating user name:	WinNT
#	Creation time:	15. 06. 2019 20:11

#	Modifying user name:	WinNT
#	Modification time:	15. 06. 2019 20:11

#	Program:	/corina/corina34_cracker 3.40 0067  02.08.2006

@<TRIPOS>MOLECULE
ASD01920078
  40   42    0    0    0
SMALL
NO_CHARGES


@<TRIPOS>ATOM
   1 C1            -0.0169     1.3979     0.0097 C.2     
   2 C2             0.0021    -0.0041     0.0020 C.2     
   3 N3             1.1453    -0.6499    -0.0124 N.2     
   4 C4             2.3064     0.0123    -0.0199 C.2     
   5 N5             2.3292     1.3835    -0.0128 N.pl3   
   6 C6             1.1544     2.0801     0.0022 C.2     
   7 C7            -1.2942    -0.7725     0.0108 C.3     
   8 C8             3.6399    -0.4139    -0.0349 C.2     
   9 C9             4.4413     0.7318    -0.0364 C.2     
  10 N10            3.6675     1.7910    -0.0234 N.2     
  11 C11            5.9482     0.7473    -0.0500 C.3     
  12 C12            4.1138    -1.8182    -0.0465 C.ar    
  13 C13            4.3261    -2.4739    -1.2580 C.ar    
  14 C14            4.7674    -3.7818    -1.2663 C.ar    
  15 C15            5.0005    -4.4458    -0.0710 C.ar    
  16 C16            4.7908    -3.7976     1.1403 C.ar    
  17 C17            4.3543    -2.4858     1.1564 C.ar    
  18 O18            5.4348    -5.7344    -0.0844 O.3     
  19 C19            5.6292    -6.3402    -1.3640 C.3     
  20 C20            6.4451     0.7597    -1.4970 C.3     
  21 F21            4.1505    -1.8546     2.3333 F       
  22 F22            5.0184    -4.4478     2.3024 F       
  23 C23            1.1603     3.5871     0.0097 C.3     
  24 F24           -0.1567     4.0586     0.0244 F       
  25 F25            1.8323     4.0451     1.1481 F       
  26 F26            1.8110     4.0566    -1.1363 F       
  27 H27           -0.9569     1.9298     0.0171 H       
  28 H28           -1.6170    -0.9523    -1.0147 H       
  29 H29           -1.1479    -1.7261     0.5181 H       
  30 H30           -2.0555    -0.1950     0.5353 H       
  31 H31            6.3070     1.6384     0.4651 H       
  32 H32            6.3252    -0.1415     0.4561 H       
  33 H33            4.1449    -1.9590    -2.1899 H       
  34 H34            4.9312    -4.2892    -2.2055 H       
  35 H35            4.6867    -6.3431    -1.9116 H       
  36 H36            6.3733    -5.7744    -1.9245 H       
  37 H37            5.9757    -7.3652    -1.2318 H       
  38 H38            7.5350     0.7709    -1.5068 H       
  39 H39            6.0863    -0.1314    -2.0120 H       
  40 H40            6.0680     1.6485    -2.0030 H       
@<TRIPOS>BOND
   1    1    2 1
   2    1    6 2
   3    1   27 1
   4    2    3 2
   5    2    7 1
   6    3    4 1
   7    4    5 1
   8    4    8 2
   9    5    6 1
  10    5   10 1
  11    6   23 1
  12    7   28 1
  13    7   29 1
  14    7   30 1
  15    8    9 1
  16    8   12 1
  17    9   10 2
  18    9   11 1
  19   11   20 1
  20   11   31 1
  21   11   32 1
  22   12   13 ar
  23   12   17 ar
  24   13   14 ar
  25   13   33 1
  26   14   15 ar
  27   14   34 1
  28   15   16 ar
  29   15   18 1
  30   16   17 ar
  31   16   22 1
  32   17   21 1
  33   18   19 1
  34   19   35 1
  35   19   36 1
  36   19   37 1
  37   20   38 1
  38   20   39 1
  39   20   40 1
  40   23   24 1
  41   23   25 1
  42   23   26 1

#	End of record

