#	Name: ASD01028695
#	Creating user name:	WinNT
#	Creation time:	15. 06. 2019 18:57

#	Modifying user name:	WinNT
#	Modification time:	15. 06. 2019 18:57

#	Program:	/corina/corina34_cracker 3.40 0067  02.08.2006

@<TRIPOS>MOLECULE
ASD01028695
  34   37    0    0    0
SMALL
NO_CHARGES


@<TRIPOS>ATOM
   1 N1            -0.0157     1.3066     0.0092 N.ar    
   2 C2             0.0021    -0.0041     0.0020 C.ar    
   3 C3             1.1967    -0.7211    -0.0128 C.ar    
   4 C4             2.3902    -0.0572    -0.0206 C.ar    
   5 C5             2.3672     1.3504    -0.0132 C.ar    
   6 C6             3.5535     2.1011    -0.0200 C.ar    
   7 C7             3.4892     3.4613    -0.0122 C.ar    
   8 C8             2.2611     4.1187     0.0030 C.ar    
   9 C9             1.0917     3.4224     0.0100 C.ar    
  10 C10            1.1167     2.0170     0.0022 C.ar    
  11 C11            4.7634     4.2659    -0.0195 C.3     
  12 C12            4.7981     5.1547    -1.2644 C.3     
  13 C13            5.4985     6.0617     3.2062 C.ar    
  14 C14            5.8508     5.0887     2.2546 C.ar    
  15 C15            7.0082     4.3292     2.4464 C.ar    
  16 C16            7.7652     4.5716     3.5782 C.ar    
  17 C17            7.3560     5.5479     4.4741 C.ar    
  18 N18            6.2609     6.2507     4.2729 N.ar    
  19 O19            4.3596     6.6386     2.7732 O.3     
  20 N20            3.9693     6.0492     1.5495 N.2     
  21 C21            4.8200     5.1282     1.2151 C.2     
  22 Br22           9.3430     3.5807     3.9014 Br      
  23 H23           -0.9341    -0.5425     0.0081 H       
  24 H24            1.1789    -1.8009    -0.0177 H       
  25 H25            3.3255    -0.5970    -0.0317 H       
  26 H26            4.5116     1.6027    -0.0311 H       
  27 H27            2.2365     5.1984     0.0097 H       
  28 H28            0.1481     3.9476     0.0221 H       
  29 H29            5.6193     3.5911    -0.0309 H       
  30 H30            5.7197     5.7368    -1.2697 H       
  31 H31            4.7571     4.5311    -2.1574 H       
  32 H32            3.9422     5.8296    -1.2530 H       
  33 H33            7.3027     3.5748     1.7319 H       
  34 H34            7.9487     5.7355     5.3572 H       
@<TRIPOS>BOND
   1    1    2 ar
   2    1   10 ar
   3    2    3 ar
   4    2   23 1
   5    3    4 ar
   6    3   24 1
   7    4    5 ar
   8    4   25 1
   9    5    6 ar
  10    5   10 ar
  11    6    7 ar
  12    6   26 1
  13    7    8 ar
  14    7   11 1
  15    8    9 ar
  16    8   27 1
  17    9   10 ar
  18    9   28 1
  19   11   12 1
  20   11   21 1
  21   11   29 1
  22   12   30 1
  23   12   31 1
  24   12   32 1
  25   13   14 ar
  26   13   18 ar
  27   13   19 1
  28   14   15 ar
  29   14   21 1
  30   15   16 ar
  31   15   33 1
  32   16   17 ar
  33   16   22 1
  34   17   18 ar
  35   17   34 1
  36   19   20 1
  37   20   21 2

#	End of record

