#	Name: ASD02588037
#	Creating user name:	WinNT
#	Creation time:	15. 06. 2019 20:25

#	Modifying user name:	WinNT
#	Modification time:	15. 06. 2019 20:25

#	Program:	/corina/corina34_cracker 3.40 0067  02.08.2006

@<TRIPOS>MOLECULE
ASD02588037
  32   34    0    0    0
SMALL
NO_CHARGES


@<TRIPOS>ATOM
   1 C1            -0.0167     1.3781     0.0096 C.2     
   2 N2             0.0021    -0.0041     0.0020 N.pl3   
   3 N3            -1.2232    -0.6855     0.0100 N.2     
   4 C4            -2.3427    -0.0162     0.0243 C.2     
   5 N5            -2.3761     1.3155     0.0314 N.2     
   6 C6            -1.2672     2.0367     0.0303 C.2     
   7 C7             1.2944     1.8139    -0.0006 C.2     
   8 C8             2.0994     0.6733    -0.0144 C.2     
   9 C9             1.2838    -0.4142    -0.0124 C.2     
  10 N10           -1.3305     3.4156     0.0382 N.pl3   
  11 C11            1.7418    -1.8499    -0.0240 C.3     
  12 O12            0.7070    -2.7034    -0.5592 O.3     
  13 C13            1.0212    -4.0289    -0.0795 C.3     
  14 C14            1.4784    -3.8219     1.3815 C.3     
  15 C15            1.9634    -2.3554     1.4188 C.3     
  16 C16           -0.2209    -4.9210    -0.1275 C.3     
  17 O17           -0.6016    -5.1346    -1.4882 O.3     
  18 F18            3.3199    -2.2961     1.7561 F       
  19 I19            1.9489     3.8040     0.0039 I       
  20 O20            2.5496    -4.7118     1.7018 O.3     
  21 *21            2.5935    -5.0913     3.0591 Du      
  22 H22           -3.2753    -0.5608     0.0303 H       
  23 H23            3.1792     0.6577    -0.0251 H       
  24 H24           -2.1919     3.8615     0.0446 H       
  25 H25           -0.5136     3.9386     0.0373 H       
  26 H26            2.6567    -1.9508    -0.6080 H       
  27 H27            1.8261    -4.4656    -0.6708 H       
  28 H28            0.6433    -3.9655     2.0670 H       
  29 H29            1.3681    -1.7740     2.1228 H       
  30 H30            0.0015    -5.8791     0.3422 H       
  31 H31           -1.0378    -4.4355     0.4064 H       
  32 H32           -1.3839    -5.6931    -1.5947 H       
@<TRIPOS>BOND
   1    1    2 1
   2    1    7 2
   3    1    6 1
   4    2    3 1
   5    2    9 1
   6    3    4 2
   7    4    5 1
   8    4   22 1
   9    5    6 2
  10    6   10 1
  11    7    8 1
  12    7   19 1
  13    8    9 2
  14    8   23 1
  15    9   11 1
  16   10   24 1
  17   10   25 1
  18   11   12 1
  19   11   15 1
  20   11   26 1
  21   12   13 1
  22   13   14 1
  23   13   16 1
  24   13   27 1
  25   14   15 1
  26   14   20 1
  27   14   28 1
  28   15   18 1
  29   15   29 1
  30   16   17 1
  31   16   30 1
  32   16   31 1
  33   17   32 1
  34   20   21 1

#	End of record

