#	Name: ASD01151090
#	Creating user name:	WinNT
#	Creation time:	15. 06. 2019 19:05

#	Modifying user name:	WinNT
#	Modification time:	15. 06. 2019 19:05

#	Program:	/corina/corina34_cracker 3.40 0067  02.08.2006

@<TRIPOS>MOLECULE
ASD01151090
  56   59    0    0    0
SMALL
NO_CHARGES


@<TRIPOS>ATOM
   1 C1            -0.0184     1.5028     0.0103 C.3     
   2 C2             0.0021    -0.0041     0.0020 C.ar    
   3 N3             0.0051    -0.6371    -1.1575 N.ar    
   4 C4             0.0227    -1.9534    -1.2197 C.ar    
   5 C5             0.0263    -2.6552    -2.5532 C.3     
   6 N6             1.4124    -2.8645    -2.9927 N.3     
   7 C7             2.1224    -3.7635    -2.0800 C.3     
   8 C8             3.6337    -3.6385    -2.2959 C.3     
   9 S9             4.0249    -4.1622    -3.9925 S.o2    
  10 O10            5.3527    -3.7594    -4.2990 O.2     
  11 O11            3.6588    -5.5268    -4.1439 O.2     
  12 C12            2.8687    -3.1350    -4.9485 C.3     
  13 C13            1.4585    -3.3265    -4.3818 C.3     
  14 C14            0.0386    -2.6953    -0.0220 C.ar    
  15 C15            0.0592    -4.1299     0.1985 C.2     
  16 C16            0.0702    -4.4951     1.4653 C.2     
  17 S17            0.0564    -3.1056     2.5347 S.3     
  18 C18            0.0346    -1.9810     1.1845 C.ar    
  19 N19            0.0217    -0.6458     1.1477 N.ar    
  20 C20            0.0911    -5.9268     1.9352 C.3     
  21 C21            1.3478    -6.1702     2.7733 C.3     
  22 C22            1.3691    -7.6238     3.2503 C.3     
  23 C23            0.1275    -7.8997     4.1008 C.3     
  24 C24            0.1488    -9.3533     4.5778 C.3     
  25 C25            0.1214    -6.9654     5.3124 C.3     
  26 C26           -1.1292    -7.6563     3.2627 C.3     
  27 C27           -1.1504    -6.2027     2.7857 C.3     
  28 H28            1.0042     1.8801     0.0026 H       
  29 H29           -0.5455     1.8639    -0.8728 H       
  30 H30           -0.5286     1.8543     0.9071 H       
  31 H31           -0.4740    -3.6189    -2.4580 H       
  32 H32           -0.4991    -2.0439    -3.2870 H       
  33 H33            1.8806    -3.4991    -1.0505 H       
  34 H34            1.8131    -4.7911    -2.2707 H       
  35 H35            3.9390    -2.6018    -2.1536 H       
  36 H36            4.1586    -4.2775    -1.5857 H       
  37 H37            3.1567    -2.0869    -4.8661 H       
  38 H38            2.8871    -3.4406    -5.9946 H       
  39 H39            1.1930    -4.3830    -4.4210 H       
  40 H40            0.7480    -2.7536    -4.9777 H       
  41 H41            0.0647    -4.8430    -0.6125 H       
  42 H42            0.0955    -6.5925     1.0720 H       
  43 H43            2.2323    -5.9737     2.1674 H       
  44 H44            1.3434    -5.5046     3.6365 H       
  45 H45            1.3735    -8.2894     2.3872 H       
  46 H46            2.2644    -7.7972     3.8474 H       
  47 H47            1.0441    -9.5267     5.1749 H       
  48 H48           -0.7357    -9.5498     5.1837 H       
  49 H49            0.1532   -10.0189     3.7147 H       
  50 H50            0.1062    -5.9298     4.9725 H       
  51 H51           -0.7632    -7.1619     5.9183 H       
  52 H52            1.0166    -7.1388     5.9095 H       
  53 H53           -1.1248    -8.3219     2.3995 H       
  54 H54           -2.0137    -7.8529     3.8686 H       
  55 H55           -1.1548    -5.5371     3.6488 H       
  56 H56           -2.0457    -6.0293     2.1886 H       
@<TRIPOS>BOND
   1    1    2 1
   2    1   28 1
   3    1   29 1
   4    1   30 1
   5    2   19 ar
   6    2    3 ar
   7    3    4 ar
   8    4    5 1
   9    4   14 ar
  10    5    6 1
  11    5   31 1
  12    5   32 1
  13    6   13 1
  14    6    7 1
  15    7    8 1
  16    7   33 1
  17    7   34 1
  18    8    9 1
  19    8   35 1
  20    8   36 1
  21    9   10 2
  22    9   11 2
  23    9   12 1
  24   12   13 1
  25   12   37 1
  26   12   38 1
  27   13   39 1
  28   13   40 1
  29   14   18 ar
  30   14   15 1
  31   15   16 2
  32   15   41 1
  33   16   17 1
  34   16   20 1
  35   17   18 1
  36   18   19 ar
  37   20   27 1
  38   20   21 1
  39   20   42 1
  40   21   22 1
  41   21   43 1
  42   21   44 1
  43   22   23 1
  44   22   45 1
  45   22   46 1
  46   23   24 1
  47   23   25 1
  48   23   26 1
  49   24   47 1
  50   24   48 1
  51   24   49 1
  52   25   50 1
  53   25   51 1
  54   25   52 1
  55   26   27 1
  56   26   53 1
  57   26   54 1
  58   27   55 1
  59   27   56 1

#	End of record

