#	Name: ASD01150725
#	Creating user name:	WinNT
#	Creation time:	15. 06. 2019 19:04

#	Modifying user name:	WinNT
#	Modification time:	15. 06. 2019 19:04

#	Program:	/corina/corina34_cracker 3.40 0067  02.08.2006

@<TRIPOS>MOLECULE
ASD01150725
  34   35    0    0    0
SMALL
NO_CHARGES


@<TRIPOS>ATOM
   1 C1            -0.0424     1.1921     0.0129 C.2     
   2 O2             0.6609     1.2333    -0.9787 O.2     
   3 C3             0.3947     0.4266     1.1962 C.ar    
   4 C4             1.5600    -0.3447     1.1410 C.ar    
   5 C5             1.9643    -1.0580     2.2488 C.ar    
   6 C6             1.2137    -1.0109     3.4207 C.ar    
   7 C7             0.0556    -0.2458     3.4778 C.ar    
   8 C8            -0.3517     0.4749     2.3769 C.ar    
   9 O9             1.6146    -1.7146     4.5101 O.3     
  10 C10            0.7981    -1.6214     5.6792 C.3     
  11 F11            3.0895    -1.8041     2.1975 F       
  12 C12           -1.3282     1.9117     0.0346 C.ar    
  13 C13           -2.5352     1.2051    -0.0924 C.ar    
  14 C14           -3.7416     1.8924    -0.0702 C.ar    
  15 C15           -3.7545     3.2646     0.0756 C.ar    
  16 C16           -2.5630     3.9696     0.2017 C.ar    
  17 C17           -1.3538     3.3011     0.1876 C.ar    
  18 O18           -2.5879     5.3218     0.3448 O.3     
  19 C19           -3.8717     5.9494     0.3568 C.3     
  20 F20           -4.6275     5.4448     1.4205 F       
  21 F21           -3.7140     7.3309     0.5109 F       
  22 F22           -4.5304     5.6869    -0.8491 F       
  23 N23           -2.5223    -0.1775    -0.2402 N.pl3   
  24 H24            2.1418    -0.3815     0.2319 H       
  25 H25           -0.5239    -0.2122     4.3886 H       
  26 H26           -1.2496     1.0733     2.4246 H       
  27 H27            1.2302    -2.2298     6.4737 H       
  28 H28            0.7465    -0.5823     6.0044 H       
  29 H29           -0.2053    -1.9810     5.4511 H       
  30 H30           -4.6716     1.3521    -0.1676 H       
  31 H31           -4.6957     3.7939     0.0914 H       
  32 H32           -0.4301     3.8513     0.2903 H       
  33 H33           -1.6787    -0.6478    -0.3306 H       
  34 H34           -3.3568    -0.6717    -0.2529 H       
@<TRIPOS>BOND
   1    1    2 2
   2    1    3 1
   3    1   12 1
   4    3    4 ar
   5    3    8 ar
   6    4    5 ar
   7    4   24 1
   8    5    6 ar
   9    5   11 1
  10    6    7 ar
  11    6    9 1
  12    7    8 ar
  13    7   25 1
  14    8   26 1
  15    9   10 1
  16   10   27 1
  17   10   28 1
  18   10   29 1
  19   12   13 ar
  20   12   17 ar
  21   13   14 ar
  22   13   23 1
  23   14   15 ar
  24   14   30 1
  25   15   16 ar
  26   15   31 1
  27   16   17 ar
  28   16   18 1
  29   17   32 1
  30   18   19 1
  31   19   20 1
  32   19   21 1
  33   19   22 1
  34   23   33 1
  35   23   34 1

#	End of record

