#	Name: ASD01410085
#	Creating user name:	WinNT
#	Creation time:	15. 06. 2019 19:16

#	Modifying user name:	WinNT
#	Modification time:	15. 06. 2019 19:16

#	Program:	/corina/corina34_cracker 3.40 0067  02.08.2006

@<TRIPOS>MOLECULE
ASD01410085
  61   64    0    0    0
SMALL
NO_CHARGES


@<TRIPOS>ATOM
   1 C1            -0.0169     1.3986     0.0097 C.ar    
   2 C2             0.0021    -0.0041     0.0020 C.ar    
   3 C3            -1.1621    -0.7094     0.0098 C.ar    
   4 C4            -2.3912    -0.0347     0.0256 C.ar    
   5 C5            -2.4204     1.3751     0.0335 C.ar    
   6 C6            -1.2305     2.0850     0.0308 C.ar    
   7 C7            -3.7374    -0.4722     0.0366 C.2     
   8 C8            -4.5317     0.6283     0.0504 C.2     
   9 N9            -3.7465     1.7566     0.0487 N.pl3   
  10 C10           -6.0103     0.6156     0.0650 C.ar    
  11 C11           -6.7099     1.4583     0.9300 C.ar    
  12 C12           -8.0893     1.4419     0.9383 C.ar    
  13 C13           -8.7792     0.5924     0.0917 C.ar    
  14 C14           -8.0917    -0.2456    -0.7682 C.ar    
  15 C15           -6.7122    -0.2351    -0.7902 C.ar    
  16 C16           -4.2054    -1.9047     0.0331 C.3     
  17 C17            1.2513     2.1499     0.0017 C.2     
  18 O18            2.4258     1.4892    -0.0131 O.3     
  19 C19           -4.2368     3.1371     0.0614 C.3     
  20 C20           -4.3904     3.6025     1.4865 C.2     
  21 N21           -4.8314     4.8497     1.7443 N.am    
  22 O22            1.2377     3.3650     0.0083 O.2     
  23 O23           -4.1172     2.8547     2.4014 O.2     
  24 C24           -4.9807     5.3021     3.1296 C.3     
  25 C25           -5.1614     5.7530     0.6391 C.3     
  26 C26           -4.0856     6.5199     3.3677 C.3     
  27 C27           -6.4398     5.6835     3.3871 C.3     
  28 C28           -3.6941    -2.6232    -1.2279 C.3     
  29 C29           -2.8067    -3.7878    -0.7422 C.3     
  30 C30           -3.3098    -4.0753     0.6942 C.3     
  31 C31           -3.6109    -2.6578     1.2410 C.3     
  32 H32            0.9465    -0.5277    -0.0105 H       
  33 H33           -1.1391    -1.7891     0.0034 H       
  34 H34           -1.2430     3.1649     0.0368 H       
  35 H35           -6.1725     2.1216     1.5916 H       
  36 H36           -8.6319     2.0932     1.6074 H       
  37 H37           -9.8591     0.5831     0.1024 H       
  38 H38           -8.6361    -0.9063    -1.4265 H       
  39 H39           -6.1767    -0.8894    -1.4621 H       
  40 H40           -5.2942    -1.9416     0.0682 H       
  41 H41            3.2308     2.0250    -0.0179 H       
  42 H42           -3.5251     3.7802    -0.4561 H       
  43 H43           -5.2023     3.1844    -0.4423 H       
  44 H44           -4.6899     4.4995     3.8073 H       
  45 H45           -6.2116     5.6330     0.3730 H       
  46 H46           -4.9796     6.7832     0.9452 H       
  47 H47           -4.5386     5.5148    -0.2232 H       
  48 H48           -4.3763     7.3226     2.6900 H       
  49 H49           -4.1967     6.8566     4.3985 H       
  50 H50           -3.0461     6.2482     3.1843 H       
  51 H51           -7.0775     4.8160     3.2175 H       
  52 H52           -6.5509     6.0202     4.4179 H       
  53 H53           -6.7306     6.4862     2.7094 H       
  54 H54           -4.5347    -3.0095    -1.8043 H       
  55 H55           -3.1075    -1.9357    -1.8373 H       
  56 H56           -2.9446    -4.6630    -1.3771 H       
  57 H57           -1.7588    -3.4881    -0.7265 H       
  58 H58           -4.2156    -4.6813     0.6721 H       
  59 H59           -2.5334    -4.5606     1.2855 H       
  60 H60           -2.6929    -2.1756     1.5770 H       
  61 H61           -4.3357    -2.7084     2.0535 H       
@<TRIPOS>BOND
   1    1    2 ar
   2    1   17 1
   3    1    6 ar
   4    2    3 ar
   5    2   32 1
   6    3    4 ar
   7    3   33 1
   8    4    5 ar
   9    4    7 1
  10    5    6 ar
  11    5    9 1
  12    6   34 1
  13    7    8 2
  14    7   16 1
  15    8    9 1
  16    8   10 1
  17    9   19 1
  18   10   11 ar
  19   10   15 ar
  20   11   12 ar
  21   11   35 1
  22   12   13 ar
  23   12   36 1
  24   13   14 ar
  25   13   37 1
  26   14   15 ar
  27   14   38 1
  28   15   39 1
  29   16   28 1
  30   16   31 1
  31   16   40 1
  32   17   18 1
  33   17   22 2
  34   18   41 1
  35   19   20 1
  36   19   42 1
  37   19   43 1
  38   20   21 am
  39   20   23 2
  40   21   24 1
  41   21   25 1
  42   24   26 1
  43   24   27 1
  44   24   44 1
  45   25   45 1
  46   25   46 1
  47   25   47 1
  48   26   48 1
  49   26   49 1
  50   26   50 1
  51   27   51 1
  52   27   52 1
  53   27   53 1
  54   28   29 1
  55   28   54 1
  56   28   55 1
  57   29   30 1
  58   29   56 1
  59   29   57 1
  60   30   31 1
  61   30   58 1
  62   30   59 1
  63   31   60 1
  64   31   61 1

#	End of record

