#	Name: ASD01410099
#	Creating user name:	WinNT
#	Creation time:	15. 06. 2019 19:16

#	Modifying user name:	WinNT
#	Modification time:	15. 06. 2019 19:16

#	Program:	/corina/corina34_cracker 3.40 0067  02.08.2006

@<TRIPOS>MOLECULE
ASD01410099
  67   70    0    0    0
SMALL
NO_CHARGES


@<TRIPOS>ATOM
   1 C1            -0.0169     1.3986     0.0097 C.ar    
   2 C2             0.0021    -0.0041     0.0020 C.ar    
   3 C3            -1.1620    -0.7093     0.0093 C.ar    
   4 C4            -2.3915    -0.0346     0.0242 C.ar    
   5 C5            -2.4205     1.3756     0.0321 C.ar    
   6 C6            -1.2306     2.0852     0.0308 C.ar    
   7 C7            -3.7366    -0.4728     0.0349 C.2     
   8 C8            -4.5331     0.6294     0.0486 C.2     
   9 N9            -3.7464     1.7584     0.0471 N.pl3   
  10 C10           -6.0046     0.6167     0.0621 C.2     
  11 C11           -4.2036    -1.9056     0.0313 C.3     
  12 C12           -5.0351    -2.1742     1.2873 C.3     
  13 C13           -5.5092    -3.6289     1.2836 C.3     
  14 C14           -6.3652    -3.8831     0.0413 C.3     
  15 C15           -5.5338    -3.6145    -1.2147 C.3     
  16 C16           -5.0596    -2.1599    -1.2110 C.3     
  17 C17            1.2512     2.1499     0.0017 C.2     
  18 O18            2.4257     1.4892    -0.0131 O.3     
  19 C19           -4.2357     3.1392     0.0592 C.3     
  20 C20           -4.3897     3.6050     1.4842 C.2     
  21 N21           -4.8298     4.8526     1.7414 N.am    
  22 O22            1.2376     3.3650     0.0083 O.2     
  23 O23           -4.1175     2.8572     2.3994 O.2     
  24 C24           -4.9850     5.3211     3.1253 C.3     
  25 C25           -6.4102     5.8522     3.3092 C.3     
  26 C26           -6.6936     6.9188     2.2489 C.3     
  27 C27           -6.5862     6.2962     0.8550 C.3     
  28 C28           -5.1577     5.7721     0.6433 C.3     
  29 N29           -8.0478     7.4539     2.4429 N.3     
  30 C30           -8.3128     8.5638     1.5177 C.3     
  31 C31           -9.0573     6.3965     2.2993 C.3     
  32 C32           -6.6675     1.3459     0.9544 C.2     
  33 H33            0.9465    -0.5277    -0.0102 H       
  34 H34           -1.1389    -1.7891     0.0033 H       
  35 H35           -1.2430     3.1651     0.0368 H       
  36 H36           -6.5460     0.0150    -0.6529 H       
  37 H37           -3.3392    -2.5695     0.0190 H       
  38 H38           -4.4252    -1.9930     2.1724 H       
  39 H39           -5.8995    -1.5103     1.2996 H       
  40 H40           -4.6448    -4.2927     1.2713 H       
  41 H41           -6.1015    -3.8202     2.1784 H       
  42 H42           -6.7030    -4.9195     0.0386 H       
  43 H43           -7.2297    -3.2193     0.0536 H       
  44 H44           -4.6693    -4.2784    -1.2270 H       
  45 H45           -6.1436    -3.7957    -2.0998 H       
  46 H46           -5.9241    -1.4960    -1.1987 H       
  47 H47           -4.4673    -1.9685    -2.1058 H       
  48 H48            3.2308     2.0249    -0.0179 H       
  49 H49           -3.5232     3.7817    -0.4581 H       
  50 H50           -5.2009     3.1871    -0.4450 H       
  51 H51           -4.8120     4.4933     3.8129 H       
  52 H52           -4.2694     6.1191     3.3234 H       
  53 H53           -7.1206     5.0328     3.1999 H       
  54 H54           -6.5098     6.2907     4.3021 H       
  55 H55           -5.9674     7.7262     2.3429 H       
  56 H56           -7.2950     5.4726     0.7689 H       
  57 H57           -6.8111     7.0507     0.1012 H       
  58 H58           -4.4586     6.6083     0.6388 H       
  59 H59           -5.1006     5.2402    -0.3064 H       
  60 H60           -8.2203     8.2107     0.4907 H       
  61 H61           -9.3220     8.9413     1.6827 H       
  62 H62           -7.5927     9.3630     1.6934 H       
  63 H63           -8.8785     5.6200     3.0431 H       
  64 H64          -10.0507     6.8199     2.4477 H       
  65 H65           -8.9918     5.9648     1.3005 H       
  66 H66           -6.1261     1.9476     1.6694 H       
  67 H67           -7.7474     1.3366     0.9644 H       
@<TRIPOS>BOND
   1    1    2 ar
   2    1   17 1
   3    1    6 ar
   4    2    3 ar
   5    2   33 1
   6    3    4 ar
   7    3   34 1
   8    4    5 ar
   9    4    7 1
  10    5    6 ar
  11    5    9 1
  12    6   35 1
  13    7    8 2
  14    7   11 1
  15    8    9 1
  16    8   10 1
  17    9   19 1
  18   10   32 2
  19   10   36 1
  20   11   12 1
  21   11   16 1
  22   11   37 1
  23   12   13 1
  24   12   38 1
  25   12   39 1
  26   13   14 1
  27   13   40 1
  28   13   41 1
  29   14   15 1
  30   14   42 1
  31   14   43 1
  32   15   16 1
  33   15   44 1
  34   15   45 1
  35   16   46 1
  36   16   47 1
  37   17   18 1
  38   17   22 2
  39   18   48 1
  40   19   20 1
  41   19   49 1
  42   19   50 1
  43   20   21 am
  44   20   23 2
  45   21   24 1
  46   21   28 1
  47   24   25 1
  48   24   51 1
  49   24   52 1
  50   25   26 1
  51   25   53 1
  52   25   54 1
  53   26   27 1
  54   26   29 1
  55   26   55 1
  56   27   28 1
  57   27   56 1
  58   27   57 1
  59   28   58 1
  60   28   59 1
  61   29   30 1
  62   29   31 1
  63   30   60 1
  64   30   61 1
  65   30   62 1
  66   31   63 1
  67   31   64 1
  68   31   65 1
  69   32   66 1
  70   32   67 1

#	End of record

