#	Name: ASD01948349
#	Creating user name:	WinNT
#	Creation time:	15. 06. 2019 20:14

#	Modifying user name:	WinNT
#	Modification time:	15. 06. 2019 20:14

#	Program:	/corina/corina34_cracker 3.40 0067  02.08.2006

@<TRIPOS>MOLECULE
ASD01948349
  53   55    0    0    0
SMALL
NO_CHARGES


@<TRIPOS>ATOM
   1 C1             0.5497     1.1087     0.9361 C.2     
   2 N2             0.4015    -0.2442     1.0269 N.am    
   3 C3             1.4706    -1.0609     1.0498 C.2     
   4 C4             2.9285     0.8390     0.8876 C.2     
   5 C5             1.7808     1.6674     0.8662 C.2     
   6 C6             3.7217     2.2285    -1.3980 C.ar    
   7 C7             4.5706     2.1420    -0.3032 C.ar    
   8 N8             4.1963     1.3916     0.8167 N.pl3   
   9 C9             4.0942     2.9700    -2.5029 C.ar    
  10 C10            5.3116     3.6257    -2.5200 C.ar    
  11 C11            6.1611     3.5429    -1.4309 C.ar    
  12 C12            5.7948     2.8028    -0.3222 C.ar    
  13 N13            1.9186     3.0620     0.7724 N.am    
  14 S14            0.5732     4.0272     0.7477 S.o2    
  15 C15           -0.1690     3.8113     2.3888 C.3     
  16 O16            1.3111    -2.2695     1.1313 O.2     
  17 C17           -0.9445    -0.8177     1.1014 C.3     
  18 F18            6.6240     2.7218     0.7413 F       
  19 I19            5.8707     4.7478    -4.1986 I       
  20 O20            1.0887     5.3434     0.6028 O.2     
  21 O21           -0.2538     3.4500    -0.2534 O.2     
  22 C22            2.7632    -0.5326     0.9802 C.2     
  23 C23            3.9623    -1.4451     1.0061 C.3     
  24 C24           -1.4493     4.5917     2.6933 C.3     
  25 C25           -1.5106     3.0798     2.4668 C.3     
  26 C26            0.8194     3.5996     3.5373 C.3     
  27 C27            1.6513     4.8684     3.7347 C.3     
  28 O28            2.4897     4.7147     4.8817 O.3     
  29 O29           -1.5464    -0.7902    -0.1944 O.3     
  30 C30           -1.0864    -1.8208    -1.0709 C.3     
  31 H31           -0.3254     1.7412     0.9151 H       
  32 H32            2.7728     1.7130    -1.3880 H       
  33 H33            4.8247     1.2584     1.5434 H       
  34 H34            3.4336     3.0372    -3.3546 H       
  35 H35            7.1114     4.0558    -1.4474 H       
  36 H36            2.8018     3.4598     0.7222 H       
  37 H37           -0.8816    -1.8482     1.4510 H       
  38 H38           -1.5499    -0.2348     1.7956 H       
  39 H39            3.6294    -2.4829     0.9916 H       
  40 H40            4.5854    -1.2511     0.1331 H       
  41 H41            4.5393    -1.2612     1.9124 H       
  42 H42           -1.5876     4.9540     3.7120 H       
  43 H43           -1.8456     5.2348     1.9076 H       
  44 H44           -1.9472     2.7283     1.5319 H       
  45 H45           -1.6892     2.4474     3.3364 H       
  46 H46            0.2706     3.3789     4.4529 H       
  47 H47            1.4796     2.7655     3.2995 H       
  48 H48            2.2694     5.0384     2.8531 H       
  49 H49            0.9865     5.7195     3.8819 H       
  50 H50            3.0467     5.4830     5.0675 H       
  51 H51           -1.5270    -1.6817    -2.0581 H       
  52 H52           -0.0001    -1.7743    -1.1479 H       
  53 H53           -1.3812    -2.7927    -0.6751 H       
@<TRIPOS>BOND
   1    1    2 1
   2    1    5 2
   3    1   31 1
   4    2    3 am
   5    2   17 1
   6    3   22 1
   7    3   16 2
   8    4    5 1
   9    4    8 1
  10    4   22 2
  11    5   13 1
  12    6    7 ar
  13    6    9 ar
  14    6   32 1
  15    7    8 1
  16    7   12 ar
  17    8   33 1
  18    9   10 ar
  19    9   34 1
  20   10   11 ar
  21   10   19 1
  22   11   12 ar
  23   11   35 1
  24   12   18 1
  25   13   14 am
  26   13   36 1
  27   14   15 1
  28   14   20 2
  29   14   21 2
  30   15   24 1
  31   15   26 1
  32   15   25 1
  33   17   29 1
  34   17   37 1
  35   17   38 1
  36   22   23 1
  37   23   39 1
  38   23   40 1
  39   23   41 1
  40   24   25 1
  41   24   42 1
  42   24   43 1
  43   25   44 1
  44   25   45 1
  45   26   27 1
  46   26   46 1
  47   26   47 1
  48   27   28 1
  49   27   48 1
  50   27   49 1
  51   28   50 1
  52   29   30 1
  53   30   51 1
  54   30   52 1
  55   30   53 1

#	End of record

