#	Name: ASD03091358
#	Creating user name:	WinNT
#	Creation time:	15. 06. 2019 20:30

#	Modifying user name:	WinNT
#	Modification time:	15. 06. 2019 20:30

#	Program:	/corina/corina34_cracker 3.40 0067  02.08.2006

@<TRIPOS>MOLECULE
ASD03091358
  64   65    0    0    0
SMALL
NO_CHARGES


@<TRIPOS>ATOM
   1 C1            -0.0166     1.3763     0.0096 C.ar    
   2 C2             0.0021    -0.0041     0.0020 C.ar    
   3 C3             1.2110    -0.6896    -0.0128 C.ar    
   4 C4             2.4049     0.0068    -0.0205 C.ar    
   5 C5             2.3951     1.4039    -0.0134 C.ar    
   6 C6             1.1727     2.0889     0.0021 C.ar    
   7 O7             1.1531     3.4462     0.0087 O.3     
   8 O8             1.2192    -2.0495    -0.0193 O.3     
   9 C9             3.6664     2.1549    -0.0210 C.2     
  10 C10            4.9014     1.4581    -0.0357 C.2     
  11 O11            3.6543     3.3728    -0.0148 O.2     
  12 C12            6.0659     2.1460    -0.0427 C.2     
  13 C13            7.3448     1.4245    -0.0579 C.ar    
  14 C14            8.5521     2.1347    -0.0651 C.ar    
  15 C15            9.7436     1.4566    -0.0788 C.ar    
  16 C16            9.7548     0.0648    -0.0859 C.ar    
  17 C17            8.5578    -0.6453    -0.0787 C.ar    
  18 C18            7.3613     0.0238    -0.0592 C.ar    
  19 O19           10.9350    -0.6010    -0.1003 O.3     
  20 O20           11.3921    -0.8586     1.0452 O.3     
  21 C21           12.5564    -1.5154     1.1010 C.2     
  22 C22           13.1648    -1.8583     2.4364 C.3     
  23 O23           13.1220    -1.8348     0.0771 O.2     
  24 N24           14.4279    -2.5709     2.2290 N.am    
  25 C25           13.4279    -0.5722     3.2223 C.3     
  26 C26           12.1088     0.1720     3.4389 C.3     
  27 C27           14.0457    -0.9204     4.5781 C.3     
  28 C28           14.8970    -3.4017     3.1809 C.2     
  29 C29           16.1963    -4.1348     2.9676 C.3     
  30 O30           14.2736    -3.5594     4.2092 O.2     
  31 N31           16.7295    -4.5738     4.2641 N.3     
  32 C32           15.9533    -5.3547     2.0766 C.3     
  33 C33           15.3980    -4.8974     0.7262 C.3     
  34 C34           17.2724    -6.0989     1.8600 C.3     
  35 H35           -0.9599     1.9024     0.0169 H       
  36 H36           -0.9274    -0.5540     0.0080 H       
  37 H37            3.3433    -0.5277    -0.0316 H       
  38 H38            1.1386     3.8436    -0.8728 H       
  39 H39            1.2132    -2.4386    -0.9045 H       
  40 H40            4.9121     0.3782    -0.0412 H       
  41 H41            6.0552     3.2259    -0.0371 H       
  42 H42            8.5444     3.2146    -0.0604 H       
  43 H43           10.6750     2.0032    -0.0845 H       
  44 H44            8.5715    -1.7252    -0.0846 H       
  45 H45            6.4330    -0.5281    -0.0536 H       
  46 H46           12.4777    -2.4923     2.9967 H       
  47 H47           14.9265    -2.4449     1.4066 H       
  48 H48           14.1151     0.0618     2.6620 H       
  49 H49           11.4217    -0.4620     3.9992 H       
  50 H50           12.2963     1.0883     3.9988 H       
  51 H51           11.6687     0.4201     2.4730 H       
  52 H52           14.9854    -1.4506     4.4237 H       
  53 H53           14.2331    -0.0041     5.1379 H       
  54 H54           13.3585    -1.5544     5.1384 H       
  55 H55           16.9136    -3.4702     2.4860 H       
  56 H56           16.0823    -5.1915     4.7307 H       
  57 H57           17.6320    -5.0115     4.1545 H       
  58 H58           15.2360    -6.0192     2.5582 H       
  59 H59           15.2249    -5.7664     0.0915 H       
  60 H60           14.4583    -4.3672     0.8805 H       
  61 H61           16.1153    -4.2328     0.2446 H       
  62 H62           17.6680    -6.4247     2.8220 H       
  63 H63           17.0993    -6.9680     1.2252 H       
  64 H64           17.9897    -5.4343     1.3784 H       
@<TRIPOS>BOND
   1    1    2 ar
   2    1    6 ar
   3    1   35 1
   4    2    3 ar
   5    2   36 1
   6    3    4 ar
   7    3    8 1
   8    4    5 ar
   9    4   37 1
  10    5    6 ar
  11    5    9 1
  12    6    7 1
  13    7   38 1
  14    8   39 1
  15    9   10 1
  16    9   11 2
  17   10   12 2
  18   10   40 1
  19   12   13 1
  20   12   41 1
  21   13   14 ar
  22   13   18 ar
  23   14   15 ar
  24   14   42 1
  25   15   16 ar
  26   15   43 1
  27   16   17 ar
  28   16   19 1
  29   17   18 ar
  30   17   44 1
  31   18   45 1
  32   19   20 1
  33   20   21 1
  34   21   22 1
  35   21   23 2
  36   22   24 1
  37   22   25 1
  38   22   46 1
  39   24   28 am
  40   24   47 1
  41   25   26 1
  42   25   27 1
  43   25   48 1
  44   26   49 1
  45   26   50 1
  46   26   51 1
  47   27   52 1
  48   27   53 1
  49   27   54 1
  50   28   29 1
  51   28   30 2
  52   29   31 1
  53   29   32 1
  54   29   55 1
  55   31   56 1
  56   31   57 1
  57   32   33 1
  58   32   34 1
  59   32   58 1
  60   33   59 1
  61   33   60 1
  62   33   61 1
  63   34   62 1
  64   34   63 1
  65   34   64 1

#	End of record

