#	Name: ASD06660003
#	Creating user name:	WinNT
#	Creation time:	15. 06. 2019 21:07

#	Modifying user name:	WinNT
#	Modification time:	15. 06. 2019 21:07

#	Program:	/corina/corina34_cracker 3.40 0067  02.08.2006

@<TRIPOS>MOLECULE
ASD06660003
  77   80    0    0    0
SMALL
NO_CHARGES


@<TRIPOS>ATOM
   1 C1            -0.0184     1.5028     0.0103 C.2     
   2 C2             0.0021    -0.0041     0.0020 C.3     
   3 C3            -0.7241    -0.5171    -1.2431 C.3     
   4 O4             1.0197     2.1211     0.0037 O.2     
   5 O5            -1.1898     2.1580     0.0194 O.3     
   6 C6             2.0717    -0.5994     1.1419 C.2     
   7 O7             1.5367    -0.3240     2.1949 O.2     
   8 N8             1.3897    -0.4735    -0.0138 N.am    
   9 C9             3.4992    -1.0823     1.1257 C.3     
  10 C10            4.0362    -1.1344     2.5573 C.3     
  11 C11            3.1824    -2.0947     3.3878 C.3     
  12 C12            3.2406    -3.4932     2.7700 C.3     
  13 C13            2.7035    -3.4412     1.3384 C.3     
  14 C14            3.5574    -2.4809     0.5079 C.3     
  15 C15            4.3530    -0.1220     0.2952 C.3     
  16 C16           -0.8113    -2.0207    -1.1900 C.ar    
  17 C17           -1.8983    -2.6278    -0.5884 C.ar    
  18 C18           -1.9814    -4.0054    -0.5380 C.ar    
  19 C19           -0.9713    -4.7813    -1.0925 C.ar    
  20 C20            0.1192    -4.1682    -1.6960 C.ar    
  21 C21            0.1932    -2.7901    -1.7480 C.ar    
  22 N22           -1.0519    -6.1748    -1.0428 N.3     
  23 C23            0.1154    -6.7927    -1.6847 C.3     
  24 C24           -0.0755    -8.3100    -1.7414 C.3     
  25 C25           -0.2456    -8.8516    -0.3193 C.3     
  26 C26           -1.4383    -8.1570     0.3437 C.3     
  27 C27           -1.2079    -6.6440     0.3399 C.3     
  28 C28           -0.4975   -10.3598    -0.3732 C.3     
  29 N29           -0.5413   -10.8966     0.9892 N.pl3   
  30 C30           -0.7597   -12.2541     1.1947 C.ar    
  31 C31           -0.9354   -13.0953     0.1035 C.ar    
  32 C32           -1.1527   -14.4495     0.3243 C.ar    
  33 C33           -1.1853   -14.9099     1.6406 C.ar    
  34 C34           -1.0026   -14.0146     2.6721 C.ar    
  35 N35           -0.7926   -12.7336     2.4293 N.ar    
  36 O36           -1.3294   -15.3039    -0.7156 O.3     
  37 C37           -1.5469   -16.6794    -0.3954 C.3     
  38 H38           -0.4983    -0.3791     0.8948 H       
  39 H39           -1.7288    -0.0959    -1.2772 H       
  40 H40           -0.1736    -0.2164    -2.1345 H       
  41 H41           -1.1523     3.1243     0.0245 H       
  42 H42            1.8177    -0.6938    -0.8559 H       
  43 H43            5.0687    -1.4837     2.5456 H       
  44 H44            3.9948    -0.1380     2.9974 H       
  45 H45            3.5650    -2.1318     4.4077 H       
  46 H46            2.1499    -1.7454     3.3995 H       
  47 H47            4.2731    -3.8425     2.7583 H       
  48 H48            2.6323    -4.1774     3.3617 H       
  49 H49            2.7450    -4.4375     0.8983 H       
  50 H50            1.6711    -3.0919     1.3501 H       
  51 H51            3.1748    -2.4438    -0.5120 H       
  52 H52            4.5899    -2.8302     0.4962 H       
  53 H53            4.3116     0.8743     0.7353 H       
  54 H54            5.3855    -0.4713     0.2835 H       
  55 H55            3.9704    -0.0849    -0.7247 H       
  56 H56           -2.6831    -2.0240    -0.1572 H       
  57 H57           -2.8305    -4.4790    -0.0677 H       
  58 H58            0.9062    -4.7685    -2.1281 H       
  59 H59            1.0385    -2.3127    -2.2213 H       
  60 H60            0.2226    -6.4021    -2.6967 H       
  61 H61            1.0115    -6.5606    -1.1092 H       
  62 H62           -0.9638    -8.5434    -2.3284 H       
  63 H63            0.7981    -8.7697    -2.2037 H       
  64 H64            0.6581    -8.6527     0.2568 H       
  65 H65           -2.3480    -8.3879    -0.2105 H       
  66 H66           -1.5385    -8.5072     1.3710 H       
  67 H67           -0.3056    -6.4127     0.9059 H       
  68 H68           -2.0619    -6.1455     0.7984 H       
  69 H69           -1.4485   -10.5517    -0.8701 H       
  70 H70            0.3065   -10.8428    -0.9284 H       
  71 H71           -0.4180   -10.3049     1.7478 H       
  72 H72           -0.9040   -12.7023    -0.9020 H       
  73 H73           -1.3524   -15.9564     1.8490 H       
  74 H74           -1.0270   -14.3661     3.6930 H       
  75 H75           -1.6726   -17.2511    -1.3149 H       
  76 H76           -0.6895   -17.0638     0.1570 H       
  77 H77           -2.4445   -16.7726     0.2160 H       
@<TRIPOS>BOND
   1    1    2 1
   2    1    4 2
   3    1    5 1
   4    2    3 1
   5    2    8 1
   6    2   38 1
   7    3   16 1
   8    3   39 1
   9    3   40 1
  10    5   41 1
  11    6    7 2
  12    6    8 am
  13    6    9 1
  14    8   42 1
  15    9   10 1
  16    9   14 1
  17    9   15 1
  18   10   11 1
  19   10   43 1
  20   10   44 1
  21   11   12 1
  22   11   45 1
  23   11   46 1
  24   12   13 1
  25   12   47 1
  26   12   48 1
  27   13   14 1
  28   13   49 1
  29   13   50 1
  30   14   51 1
  31   14   52 1
  32   15   53 1
  33   15   54 1
  34   15   55 1
  35   16   17 ar
  36   16   21 ar
  37   17   18 ar
  38   17   56 1
  39   18   19 ar
  40   18   57 1
  41   19   20 ar
  42   19   22 1
  43   20   21 ar
  44   20   58 1
  45   21   59 1
  46   22   23 1
  47   22   27 1
  48   23   24 1
  49   23   60 1
  50   23   61 1
  51   24   25 1
  52   24   62 1
  53   24   63 1
  54   25   26 1
  55   25   28 1
  56   25   64 1
  57   26   27 1
  58   26   65 1
  59   26   66 1
  60   27   67 1
  61   27   68 1
  62   28   29 1
  63   28   69 1
  64   28   70 1
  65   29   30 1
  66   29   71 1
  67   30   31 ar
  68   30   35 ar
  69   31   32 ar
  70   31   72 1
  71   32   33 ar
  72   32   36 1
  73   33   34 ar
  74   33   73 1
  75   34   35 ar
  76   34   74 1
  77   36   37 1
  78   37   75 1
  79   37   76 1
  80   37   77 1

#	End of record

