#	Name: ASD01811997
#	Creating user name:	WinNT
#	Creation time:	15. 06. 2019 19:27

#	Modifying user name:	WinNT
#	Modification time:	15. 06. 2019 19:27

#	Program:	/corina/corina34_cracker 3.40 0067  02.08.2006

@<TRIPOS>MOLECULE
ASD01811997
  45   47    0    0    0
SMALL
NO_CHARGES


@<TRIPOS>ATOM
   1 C1            -0.0167     1.3818     0.0096 C.ar    
   2 C2             0.0021    -0.0041     0.0020 C.ar    
   3 C3             1.2028    -0.6768    -0.0127 C.ar    
   4 C4             2.4162     0.0307    -0.0199 C.ar    
   5 C5             2.3931     1.4258    -0.0119 C.ar    
   6 C6             1.1650     2.0898     0.0022 C.ar    
   7 C7             3.6574    -0.7487    -0.0362 C.2     
   8 C8             4.7483     0.7182    -1.5857 C.3     
   9 C9             4.6320     1.9520    -0.7320 C.2     
  10 N10            3.5383     2.2052    -0.0158 N.am    
  11 S11            5.8521     2.9844    -0.6832 S.2     
  12 C12            3.7136    -1.9852     0.8234 C.3     
  13 C13            5.0321    -2.7202     0.5742 C.3     
  14 C14            5.0891    -3.9755     1.4469 C.3     
  15 C15            4.9985    -3.5763     2.9212 C.3     
  16 C16            3.6799    -2.8414     3.1704 C.3     
  17 C17            3.6229    -1.5860     2.2976 C.3     
  18 Cl18          -1.4897    -0.8919     0.0116 Cl      
  19 C19            3.5904     0.6754    -2.5848 C.3     
  20 C20            3.6400     1.9177    -3.4766 C.3     
  21 N21            4.6942    -0.4610    -0.7228 N.2     
  22 C22            3.7108    -0.5797    -3.4515 C.3     
  23 H23           -0.9599     1.9079     0.0170 H       
  24 H24            1.2121    -1.7568    -0.0183 H       
  25 H25            1.1413     3.1695     0.0071 H       
  26 H26            5.6954     0.7354    -2.1249 H       
  27 H27            3.5438     2.9960     0.5459 H       
  28 H28            2.8794    -2.6404     0.5724 H       
  29 H29            5.0967    -3.0046    -0.4761 H       
  30 H30            5.8663    -2.0650     0.8251 H       
  31 H31            4.2550    -4.6307     1.1960 H       
  32 H32            6.0285    -4.4991     1.2694 H       
  33 H33            5.0391    -4.4707     3.5429 H       
  34 H34            5.8327    -2.9212     3.1721 H       
  35 H35            2.8457    -3.4965     2.9194 H       
  36 H36            3.6154    -2.5570     4.2206 H       
  37 H37            4.4571    -0.9308     2.5486 H       
  38 H38            2.6835    -1.0624     2.4751 H       
  39 H39            2.6443     0.6540    -2.0439 H       
  40 H40            4.5861     1.9390    -4.0175 H       
  41 H41            2.8151     1.8871    -4.1884 H       
  42 H42            3.5542     2.8118    -2.8591 H       
  43 H43            3.6754    -1.4647    -2.8162 H       
  44 H44            2.8859    -0.6102    -4.1633 H       
  45 H45            4.6568    -0.5583    -3.9924 H       
@<TRIPOS>BOND
   1    1    2 ar
   2    1    6 ar
   3    1   23 1
   4    2    3 ar
   5    2   18 1
   6    3    4 ar
   7    3   24 1
   8    4    5 ar
   9    4    7 1
  10    5    6 ar
  11    5   10 1
  12    6   25 1
  13    7   12 1
  14    7   21 2
  15    8    9 1
  16    8   19 1
  17    8   21 1
  18    8   26 1
  19    9   10 am
  20    9   11 2
  21   10   27 1
  22   12   13 1
  23   12   17 1
  24   12   28 1
  25   13   14 1
  26   13   29 1
  27   13   30 1
  28   14   15 1
  29   14   31 1
  30   14   32 1
  31   15   16 1
  32   15   33 1
  33   15   34 1
  34   16   17 1
  35   16   35 1
  36   16   36 1
  37   17   37 1
  38   17   38 1
  39   19   20 1
  40   19   22 1
  41   19   39 1
  42   20   40 1
  43   20   41 1
  44   20   42 1
  45   22   43 1
  46   22   44 1
  47   22   45 1

#	End of record

