#	Name: ASD01884745
#	Creating user name:	WinNT
#	Creation time:	15. 06. 2019 19:48

#	Modifying user name:	WinNT
#	Modification time:	15. 06. 2019 19:48

#	Program:	/corina/corina34_cracker 3.40 0067  02.08.2006

@<TRIPOS>MOLECULE
ASD01884745
  50   53    0    0    0
SMALL
NO_CHARGES


@<TRIPOS>ATOM
   1 C1            -0.0170     1.3882     0.0432 C.2     
   2 C2             0.0019    -0.0042     0.0363 C.2     
   3 C3            -1.2135    -0.6983     0.0098 C.2     
   4 C4            -2.3898    -0.0118    -0.0091 C.2     
   5 N5            -2.4100     1.3457    -0.0023 N.am    
   6 C6            -1.2677     2.0576     0.0293 C.2     
   7 O7            -1.3080     3.2764     0.0350 O.2     
   8 C8            -3.6959     2.0473    -0.0238 C.3     
   9 C9             1.2062     2.1323     0.0700 C.1     
  10 N10            2.1766     2.7226     0.0913 N.1     
  11 C11           -4.1717     2.2839     1.4110 C.3     
  12 C12           -5.5146     3.0166     1.3886 C.3     
  13 C13           -6.5763     2.1164     0.7534 C.3     
  14 C14           -5.9302     3.3637     2.8196 C.3     
  15 N15           -1.2200    -2.1015     0.0024 N.pl3   
  16 C16           -2.4765    -2.8565     0.1195 C.3     
  17 C17           -2.2449    -3.9963     1.0977 C.2     
  18 C18           -1.0419    -4.3559     1.5602 C.2     
  19 C19            0.2531    -3.6569     1.1673 C.3     
  20 C20            0.0292    -2.8670    -0.1291 C.3     
  21 S21           -3.5218    -5.0046     1.7619 S.3     
  22 C22           -2.3885    -5.9506     2.6941 C.ar    
  23 C23           -1.0861    -5.4790     2.4777 C.ar    
  24 C24           -2.6471    -7.0280     3.5496 C.ar    
  25 C25           -1.5558    -7.6069     4.1711 C.ar    
  26 C26           -0.2656    -7.1458     3.9600 C.ar    
  27 C27            0.0102    -6.0934     3.1282 C.ar    
  28 Cl28           1.0479    -7.9305     4.7801 Cl      
  29 H29            0.9394    -0.5402     0.0507 H       
  30 H30           -3.3221    -0.5565    -0.0301 H       
  31 H31           -3.5787     3.0052    -0.5304 H       
  32 H32           -4.4308     1.4427    -0.5552 H       
  33 H33           -4.2889     1.3260     1.9176 H       
  34 H34           -3.4367     2.8885     1.9424 H       
  35 H35           -5.4191     3.9327     0.8057 H       
  36 H36           -7.5330     2.6384     0.7375 H       
  37 H37           -6.2802     1.8692    -0.2661 H       
  38 H38           -6.6718     1.2003     1.3363 H       
  39 H39           -5.1738     4.0051     3.2721 H       
  40 H40           -6.8869     3.8857     2.8037 H       
  41 H41           -6.0257     2.4476     3.4025 H       
  42 H42           -3.2656    -2.2040     0.4933 H       
  43 H43           -2.7583    -3.2572    -0.8542 H       
  44 H44            0.5549    -2.9759     1.9631 H       
  45 H45            1.0342    -4.4003     1.0083 H       
  46 H46           -0.0507    -3.5556    -0.9702 H       
  47 H47            0.8620    -2.1828    -0.2917 H       
  48 H48           -3.6510    -7.3897     3.7165 H       
  49 H49           -1.7130    -8.4406     4.8394 H       
  50 H50            1.0217    -5.7471     2.9750 H       
@<TRIPOS>BOND
   1    1    2 2
   2    1    9 1
   3    1    6 1
   4    2    3 1
   5    2   29 1
   6    3    4 2
   7    3   15 1
   8    4    5 1
   9    4   30 1
  10    5    8 1
  11    5    6 am
  12    6    7 2
  13    8   11 1
  14    8   31 1
  15    8   32 1
  16    9   10 3
  17   11   12 1
  18   11   33 1
  19   11   34 1
  20   12   13 1
  21   12   14 1
  22   12   35 1
  23   13   36 1
  24   13   37 1
  25   13   38 1
  26   14   39 1
  27   14   40 1
  28   14   41 1
  29   15   16 1
  30   15   20 1
  31   16   17 1
  32   16   42 1
  33   16   43 1
  34   17   18 2
  35   17   21 1
  36   18   19 1
  37   18   23 1
  38   19   20 1
  39   19   44 1
  40   19   45 1
  41   20   46 1
  42   20   47 1
  43   21   22 1
  44   22   23 ar
  45   22   24 ar
  46   23   27 ar
  47   24   25 ar
  48   24   48 1
  49   25   26 ar
  50   25   49 1
  51   26   27 ar
  52   26   28 1
  53   27   50 1

#	End of record

