#	Name: ASD01814808
#	Creating user name:	WinNT
#	Creation time:	15. 06. 2019 19:33

#	Modifying user name:	WinNT
#	Modification time:	15. 06. 2019 19:33

#	Program:	/corina/corina34_cracker 3.40 0067  02.08.2006

@<TRIPOS>MOLECULE
ASD01814808
  57   61    0    0    0
SMALL
NO_CHARGES


@<TRIPOS>ATOM
   1 O1            -0.0173     1.4248     0.0099 O.3     
   2 C2             0.0021    -0.0041     0.0020 C.3     
   3 C3             0.7421    -0.5109     1.2415 C.3     
   4 C4             0.7628    -2.0407     1.2331 C.3     
   5 C5            -0.6726    -2.5703     1.2440 C.3     
   6 H6            -1.1828    -2.2188     2.1408 H       
   7 N7            -0.6527    -4.0352     1.2359 N.am    
   8 C8            -0.5307    -4.7138     2.3940 C.2     
   9 O9            -0.4372    -4.1100     3.4460 O.2     
  10 C10           -0.5108    -6.1830     2.3859 C.2     
  11 C11           -0.5995    -6.9944     1.2921 C.2     
  12 N12           -0.5452    -8.2907     1.6777 N.pl3   
  13 C13           -0.6113    -9.4375     0.7684 C.3     
  14 C14           -2.0333    -9.9289     0.6822 C.ar    
  15 C15           -2.4856   -10.8910     1.5665 C.ar    
  16 C16           -3.7882   -11.3437     1.4896 C.ar    
  17 C17           -4.6438   -10.8315     0.5236 C.ar    
  18 C18           -4.1869    -9.8653    -0.3625 C.ar    
  19 C19           -2.8847    -9.4128    -0.2774 C.ar    
  20 N20           -5.9664   -11.2893     0.4429 N.pl3   
  21 C21           -6.8970   -10.8804    -0.4489 C.2     
  22 C22           -8.0385   -11.5610    -0.1940 C.2     
  23 C23           -7.7988   -12.4140     0.8889 C.2     
  24 N24           -6.5561   -12.2558     1.2678 N.2     
  25 C25           -0.4180    -8.3785     3.0476 C.ar    
  26 C26           -0.3213    -9.4473     3.9339 C.ar    
  27 C27           -0.2016    -9.1707     5.2845 C.ar    
  28 C28           -0.1812    -7.8539     5.7152 C.ar    
  29 N29           -0.2743    -6.8558     4.8617 N.ar    
  30 C30           -0.3847    -7.0693     3.5570 C.ar    
  31 C31           -1.4126    -2.0635     0.0045 C.3     
  32 H32           -0.9024    -2.4150    -0.8923 H       
  33 O33           -2.7532    -2.5581     0.0146 O.3     
  34 C34           -1.4333    -0.5336     0.0129 C.3     
  35 H35            0.8606     1.8301     0.0037 H       
  36 H36            0.5123    -0.3556    -0.8948 H       
  37 H37            1.7647    -0.1336     1.2338 H       
  38 H38            0.2319    -0.1594     2.1383 H       
  39 H39            1.2730    -2.3923     0.3363 H       
  40 H40            1.2900    -2.4018     2.1162 H       
  41 H41           -0.7273    -4.5166     0.3972 H       
  42 H42           -0.6985    -6.6533     0.2721 H       
  43 H43           -0.2704    -9.1359    -0.2221 H       
  44 H44            0.0272   -10.2368     1.1446 H       
  45 H45           -1.8196   -11.2890     2.3177 H       
  46 H46           -4.1408   -12.0956     2.1801 H       
  47 H47           -4.8500    -9.4653    -1.1153 H       
  48 H48           -2.5299    -8.6581    -0.9636 H       
  49 H49           -6.7549   -10.1429    -1.2250 H       
  50 H50           -8.9701   -11.4630    -0.7315 H       
  51 H51           -8.5148   -13.0896     1.3331 H       
  52 H52           -0.3396   -10.4664     3.5768 H       
  53 H53           -0.1249    -9.9769     5.9990 H       
  54 H54           -0.0876    -7.6425     6.7701 H       
  55 H55           -3.2823    -2.2757    -0.7439 H       
  56 H56           -1.9435    -0.1821     0.9097 H       
  57 H57           -1.9605    -0.1726    -0.8702 H       
@<TRIPOS>BOND
   1    1    2 1
   2    1   35 1
   3    2   34 1
   4    2    3 1
   5    2   36 1
   6    3    4 1
   7    3   37 1
   8    3   38 1
   9    4    5 1
  10    4   39 1
  11    4   40 1
  12    5    6 1
  13    5    7 1
  14    5   31 1
  15    7    8 am
  16    7   41 1
  17    8    9 2
  18    8   10 1
  19   10   30 1
  20   10   11 2
  21   11   12 1
  22   11   42 1
  23   12   13 1
  24   12   25 1
  25   13   14 1
  26   13   43 1
  27   13   44 1
  28   14   19 ar
  29   14   15 ar
  30   15   16 ar
  31   15   45 1
  32   16   17 ar
  33   16   46 1
  34   17   18 ar
  35   17   20 1
  36   18   19 ar
  37   18   47 1
  38   19   48 1
  39   20   24 1
  40   20   21 1
  41   21   22 2
  42   21   49 1
  43   22   23 1
  44   22   50 1
  45   23   24 2
  46   23   51 1
  47   25   30 ar
  48   25   26 ar
  49   26   27 ar
  50   26   52 1
  51   27   28 ar
  52   27   53 1
  53   28   29 ar
  54   28   54 1
  55   29   30 ar
  56   31   32 1
  57   31   33 1
  58   31   34 1
  59   33   55 1
  60   34   56 1
  61   34   57 1

#	End of record

