#	Name: ASD03092985
#	Creating user name:	WinNT
#	Creation time:	15. 06. 2019 20:33

#	Modifying user name:	WinNT
#	Modification time:	15. 06. 2019 20:33

#	Program:	/corina/corina34_cracker 3.40 0067  02.08.2006

@<TRIPOS>MOLECULE
ASD03092985
  36   39    0    0    0
SMALL
NO_CHARGES


@<TRIPOS>ATOM
   1 N1            -0.0204     1.6518     0.0111 N.am    
   2 S2             0.0021    -0.0041     0.0020 S.o2    
   3 O3             1.3604    -0.3860    -0.1664 O.2     
   4 O4            -0.7920    -0.4222     1.1038 O.2     
   5 C5            -0.8462    -0.5292    -1.4503 C.ar    
   6 C6            -2.2107    -0.7471    -1.4131 C.ar    
   7 C7            -2.8762    -1.1591    -2.5525 C.ar    
   8 C8            -2.1772    -1.3528    -3.7293 C.ar    
   9 C9            -0.8128    -1.1340    -3.7668 C.ar    
  10 C10           -0.1480    -0.7179    -2.6284 C.ar    
  11 C11           -2.9025    -1.8029    -4.9712 C.3     
  12 H12           -3.8251    -2.3580    -4.8017 H       
  13 C13           -2.0535    -2.1965    -6.1816 C.3     
  14 C14           -2.8444    -0.8860    -6.1947 C.3     
  15 H15           -2.2816     0.0428    -6.1013 H       
  16 C16           -4.0670    -0.8199    -7.0734 C.2     
  17 N17           -4.5931    -1.8344    -7.6906 N.2     
  18 C18           -5.6815    -1.4075    -8.3875 C.ar    
  19 C19           -6.6103    -2.0438    -9.2120 C.ar    
  20 C20           -7.6268    -1.3141    -9.7869 C.ar    
  21 C21           -7.7325     0.0506    -9.5512 C.ar    
  22 F22           -8.7344     0.7546   -10.1218 F       
  23 C23           -6.8198     0.6925    -8.7366 C.ar    
  24 C24           -5.7910    -0.0286    -8.1508 C.ar    
  25 O25           -4.7713     0.2950    -7.3254 O.3     
  26 H26            0.8130     2.1481     0.0058 H       
  27 H27           -0.8669     2.1253     0.0177 H       
  28 H28           -2.7569    -0.5958    -0.4937 H       
  29 H29           -3.9422    -1.3300    -2.5233 H       
  30 H30           -0.2666    -1.2856    -4.6860 H       
  31 H31            0.9174    -0.5433    -2.6586 H       
  32 H32           -0.9704    -2.1299    -6.0797 H       
  33 H33           -2.4178    -3.0103    -6.8086 H       
  34 H34           -6.5320    -3.1046    -9.3989 H       
  35 H35           -8.3460    -1.8058   -10.4251 H       
  36 H36           -6.9075     1.7538    -8.5569 H       
@<TRIPOS>BOND
   1    1    2 am
   2    1   26 1
   3    1   27 1
   4    2    3 2
   5    2    4 2
   6    2    5 1
   7    5   10 ar
   8    5    6 ar
   9    6    7 ar
  10    6   28 1
  11    7    8 ar
  12    7   29 1
  13    8    9 ar
  14    8   11 1
  15    9   10 ar
  16    9   30 1
  17   10   31 1
  18   11   12 1
  19   11   14 1
  20   11   13 1
  21   13   14 1
  22   13   32 1
  23   13   33 1
  24   14   15 1
  25   14   16 1
  26   16   25 1
  27   16   17 2
  28   17   18 1
  29   18   24 ar
  30   18   19 ar
  31   19   20 ar
  32   19   34 1
  33   20   21 ar
  34   20   35 1
  35   21   22 1
  36   21   23 ar
  37   23   24 ar
  38   23   36 1
  39   24   25 1

#	End of record

