#	Name: ASD08070081
#	Creating user name:	WinNT
#	Creation time:	15. 06. 2019 21:14

#	Modifying user name:	WinNT
#	Modification time:	15. 06. 2019 21:14

#	Program:	/corina/corina34_cracker 3.40 0067  02.08.2006

@<TRIPOS>MOLECULE
ASD08070081
  41   41    0    0    0
SMALL
NO_CHARGES


@<TRIPOS>ATOM
   1 C1            -0.0166     1.3718     0.0096 C.ar    
   2 C2             0.0021    -0.0041     0.0020 C.ar    
   3 C3             1.1837     2.0868     0.0020 C.ar    
   4 C4             2.4030     1.4051    -0.0133 C.ar    
   5 C5             2.4221     0.0292    -0.0213 C.ar    
   6 C6             1.2216    -0.6862    -0.0133 C.ar    
   7 C7             1.2419    -2.1629    -0.0214 C.2     
   8 O8             2.3029    -2.7562    -0.0350 O.2     
   9 C9            -1.2021    -4.8422    -0.6212 C.3     
  10 C10            0.1041    -4.3176    -0.0216 C.3     
  11 N11            0.0841    -2.8527    -0.0136 N.am    
  12 C12            0.2510    -4.8335     1.4113 C.3     
  13 C13            1.6129    -4.4131     1.9676 C.3     
  14 C14            1.1634     3.5633     0.0096 C.2     
  15 C15            1.7598    -4.9290     3.4004 C.3     
  16 C16            2.3033     4.2425     0.0023 C.2     
  17 C17           -1.2896    -4.4306    -2.0921 C.3     
  18 C18           -2.5958    -4.9552    -2.6917 C.3     
  19 H19           -0.9591     1.8990     0.0169 H       
  20 H20           -0.9258    -0.5568     0.0082 H       
  21 H21            3.3308     1.9580    -0.0192 H       
  22 H22            3.3647    -0.4978    -0.0335 H       
  23 H23           -1.2254    -5.9294    -0.5461 H       
  24 H24           -2.0469    -4.4221    -0.0754 H       
  25 H25            0.9450    -4.6661    -0.6213 H       
  26 H26           -0.7625    -2.3793    -0.0027 H       
  27 H27           -0.5404    -4.4130     2.0317 H       
  28 H28            0.1769    -5.9209     1.4153 H       
  29 H29            2.4043    -4.8335     1.3471 H       
  30 H30            1.6870    -3.3256     1.9635 H       
  31 H31            0.2209     4.0904     0.0210 H       
  32 H32            0.9684    -4.5085     4.0209 H       
  33 H33            1.6857    -6.0164     3.4045 H       
  34 H34            2.7300    -4.6295     3.7968 H       
  35 H35            3.2458     3.7154    -0.0091 H       
  36 H36            2.2885     5.3224     0.0079 H       
  37 H37           -1.2663    -3.3434    -2.1672 H       
  38 H38           -0.4448    -4.8507    -2.6379 H       
  39 H39           -2.6192    -6.0424    -2.6166 H       
  40 H40           -3.4407    -4.5351    -2.1459 H       
  41 H41           -2.6582    -4.6619    -3.7396 H       
@<TRIPOS>BOND
   1    1    2 ar
   2    1    3 ar
   3    1   19 1
   4    2    6 ar
   5    2   20 1
   6    3    4 ar
   7    3   14 1
   8    4    5 ar
   9    4   21 1
  10    5    6 ar
  11    5   22 1
  12    6    7 1
  13    7    8 2
  14    7   11 am
  15    9   10 1
  16    9   17 1
  17    9   23 1
  18    9   24 1
  19   10   12 1
  20   10   11 1
  21   10   25 1
  22   11   26 1
  23   12   13 1
  24   12   27 1
  25   12   28 1
  26   13   15 1
  27   13   29 1
  28   13   30 1
  29   14   16 2
  30   14   31 1
  31   15   32 1
  32   15   33 1
  33   15   34 1
  34   16   35 1
  35   16   36 1
  36   17   18 1
  37   17   37 1
  38   17   38 1
  39   18   39 1
  40   18   40 1
  41   18   41 1

#	End of record

