#	Name: ASD01813016
#	Creating user name:	WinNT
#	Creation time:	15. 06. 2019 19:29

#	Modifying user name:	WinNT
#	Modification time:	15. 06. 2019 19:29

#	Program:	/corina/corina34_cracker 3.40 0067  02.08.2006

@<TRIPOS>MOLECULE
ASD01813016
  44   47    0    0    0
SMALL
NO_CHARGES


@<TRIPOS>ATOM
   1 N1             0.0027     1.3184    -0.2223 N.ar    
   2 C2             0.0319     0.0058    -0.3459 C.ar    
   3 C3             1.2340    -0.6843    -0.3681 C.ar    
   4 C4             2.4113     0.0205    -0.2592 C.ar    
   5 C5             2.3614     1.4132    -0.1292 C.ar    
   6 C6             1.1073     2.0395    -0.1145 C.ar    
   7 C7             3.8682    -0.3580    -0.2433 C.3     
   8 N8             4.6152     0.8976    -0.0980 N.am    
   9 C9             3.7395     1.9163    -0.0327 C.2     
  10 C10            6.0736     1.0205    -0.0346 C.3     
  11 C11            6.6239     1.1964    -1.4264 C.ar    
  12 O12            1.0259     3.3855     0.0100 O.3     
  13 O13            4.0443     3.0872     0.0883 O.2     
  14 C14            6.5788     2.4409    -2.0339 C.ar    
  15 C15            7.0825     2.6079    -3.3100 C.ar    
  16 C16            7.6368     1.5193    -3.9853 C.ar    
  17 C17            7.6784     0.2683    -3.3660 C.ar    
  18 C18            7.1771     0.1159    -2.0900 C.ar    
  19 C19           -0.2021     3.9617    -0.0802 C.ar    
  20 C20           -1.0089     4.0615     1.0469 C.ar    
  21 C21           -0.6498     4.4560    -1.2957 C.ar    
  22 C22           -1.8984     5.0419    -1.3851 C.ar    
  23 C23           -2.7017     5.1361    -0.2642 C.ar    
  24 C24           -2.2573     4.6487     0.9514 C.ar    
  25 F25           -0.5744     3.5852     2.2341 F       
  26 C26           -4.0623     5.7760    -0.3657 C.3     
  27 F27           -5.0145     4.8000    -0.6790 F       
  28 F28           -4.3900     6.3716     0.8571 F       
  29 F29           -4.0457     6.7504    -1.3694 F       
  30 C30            8.1602     1.6846    -5.3080 C.1     
  31 F31            6.0413     3.4926    -1.3779 F       
  32 N32            8.5754     1.8156    -6.3572 N.1     
  33 H33           -0.8959    -0.5406    -0.4309 H       
  34 H34            1.2466    -1.7595    -0.4691 H       
  35 H35            4.0751    -1.0170     0.5999 H       
  36 H36            4.1382    -0.8488    -1.1784 H       
  37 H37            6.3393     1.8855     0.5732 H       
  38 H38            6.4951     0.1197     0.4116 H       
  39 H39            7.0469     3.5779    -3.7835 H       
  40 H40            8.1061    -0.5775    -3.8837 H       
  41 H41            7.2129    -0.8506    -1.6093 H       
  42 H42           -0.0230     4.3837    -2.1722 H       
  43 H43           -2.2469     5.4268    -2.3321 H       
  44 H44           -2.8853     4.7269     1.8265 H       
@<TRIPOS>BOND
   1    1    2 ar
   2    1    6 ar
   3    2    3 ar
   4    2   33 1
   5    3    4 ar
   6    3   34 1
   7    4    7 1
   8    4    5 ar
   9    5    6 ar
  10    5    9 1
  11    6   12 1
  12    7    8 1
  13    7   35 1
  14    7   36 1
  15    8    9 am
  16    8   10 1
  17    9   13 2
  18   10   11 1
  19   10   37 1
  20   10   38 1
  21   11   14 ar
  22   11   18 ar
  23   12   19 1
  24   14   15 ar
  25   14   31 1
  26   15   16 ar
  27   15   39 1
  28   16   17 ar
  29   16   30 1
  30   17   18 ar
  31   17   40 1
  32   18   41 1
  33   19   21 ar
  34   19   20 ar
  35   20   24 ar
  36   20   25 1
  37   21   22 ar
  38   21   42 1
  39   22   23 ar
  40   22   43 1
  41   23   24 ar
  42   23   26 1
  43   24   44 1
  44   26   27 1
  45   26   28 1
  46   26   29 1
  47   30   32 3

#	End of record

