#	Name: ASD01813734
#	Creating user name:	WinNT
#	Creation time:	15. 06. 2019 19:31

#	Modifying user name:	WinNT
#	Modification time:	15. 06. 2019 19:31

#	Program:	/corina/corina34_cracker 3.40 0067  02.08.2006

@<TRIPOS>MOLECULE
ASD01813734
  65   70    0    0    0
SMALL
NO_CHARGES


@<TRIPOS>ATOM
   1 C1            -0.0178     1.4608     0.0101 C.3     
   2 N2             0.0021    -0.0041     0.0020 N.pl3   
   3 C3             0.0077    -0.7875    -1.0939 C.2     
   4 C4             0.0273    -2.0862    -0.6731 C.2     
   5 C5             0.0335    -2.0755     0.7360 C.2     
   6 N6             0.0245    -0.8305     1.1319 N.2     
   7 C7             0.0393    -3.2890    -1.5409 C.ar    
   8 C8             0.0533    -4.5572    -0.9640 C.ar    
   9 C9             0.0639    -5.6700    -1.7865 C.ar    
  10 C10            0.0601    -5.4781    -3.1611 C.ar    
  11 C11            0.0708    -6.6613    -4.0943 C.3     
  12 C12           -1.3464    -7.0701    -4.4034 C.ar    
  13 C13           -1.9305    -8.0503    -3.6736 C.ar    
  14 C14           -3.2481    -8.4613    -3.9283 C.ar    
  15 C15           -3.8916    -9.5228    -3.1436 C.2     
  16 O16           -3.3020   -10.0868    -2.2395 O.2     
  17 N17           -5.1653    -9.8498    -3.4634 N.am    
  18 C18           -5.8074    -9.2110    -4.4731 C.2     
  19 N19           -5.2571    -8.2682    -5.1811 N.2     
  20 C20           -3.9975    -7.8591    -4.9553 C.ar    
  21 C21           -3.3739    -6.8019    -5.7459 C.ar    
  22 C22           -4.0600    -6.1595    -6.7816 C.ar    
  23 C23           -3.4391    -5.1760    -7.4950 C.ar    
  24 C24           -2.1305    -4.8035    -7.2051 C.ar    
  25 C25           -1.4343    -5.4098    -6.2022 C.ar    
  26 C26           -2.0436    -6.4213    -5.4440 C.ar    
  27 C27           -5.8558   -10.9021    -2.7136 C.3     
  28 H28           -5.1919   -11.3008    -1.9465 H       
  29 C29           -7.0912   -10.3353    -2.0681 C.3     
  30 C30           -7.3987   -10.9899    -0.7077 C.3     
  31 C31           -7.1903   -12.5164    -0.7185 C.3     
  32 C32           -7.7095   -13.1596    -1.9758 C.3     
  33 C33           -6.5456   -13.2815    -2.9804 C.3     
  34 C34           -6.2750   -12.0332    -3.6748 C.3     
  35 H35           -7.1755   -11.7278    -4.2078 H       
  36 O36           -5.2281   -12.2458    -4.6239 O.3     
  37 C37            0.0459    -4.1915    -3.6660 C.ar    
  38 N38            0.0309    -3.1486    -2.8603 N.ar    
  39 H39            1.0048     1.8381     0.0023 H       
  40 H40           -0.5450     1.8219    -0.8730 H       
  41 H41           -0.5280     1.8123     0.9069 H       
  42 H42           -0.0015    -0.4495    -2.1196 H       
  43 H43            0.0482    -2.9447     1.3768 H       
  44 H44            0.0563    -4.6702     0.1101 H       
  45 H45            0.0753    -6.6656    -1.3682 H       
  46 H46            0.5806    -6.3903    -5.0188 H       
  47 H47            0.5937    -7.4925    -3.6212 H       
  48 H48           -1.3715    -8.5249    -2.8806 H       
  49 H49           -6.8232    -9.4988    -4.7004 H       
  50 H50           -5.0761    -6.4407    -7.0157 H       
  51 H51           -3.9699    -4.6810    -8.2948 H       
  52 H52           -1.6591    -4.0227    -7.7833 H       
  53 H53           -0.4190    -5.1096    -5.9889 H       
  54 H54           -6.9524    -9.2643    -1.9208 H       
  55 H55           -7.9400   -10.4906    -2.7341 H       
  56 H56           -6.7476   -10.5515     0.0485 H       
  57 H57           -8.4345   -10.7785    -0.4421 H       
  58 H58           -6.1247   -12.7274    -0.6285 H       
  59 H59           -7.7070   -12.9489     0.1383 H       
  60 H60           -8.1000   -14.1509    -1.7456 H       
  61 H61           -8.4994   -12.5422    -2.4037 H       
  62 H62           -5.6467   -13.5854    -2.4440 H       
  63 H63           -6.7921   -14.0482    -3.7150 H       
  64 H64           -5.4153   -12.9440    -5.2662 H       
  65 H65            0.0432    -4.0388    -4.7351 H       
@<TRIPOS>BOND
   1    1    2 1
   2    1   39 1
   3    1   40 1
   4    1   41 1
   5    2    6 1
   6    2    3 1
   7    3    4 2
   8    3   42 1
   9    4    5 1
  10    4    7 1
  11    5    6 2
  12    5   43 1
  13    7   38 ar
  14    7    8 ar
  15    8    9 ar
  16    8   44 1
  17    9   10 ar
  18    9   45 1
  19   10   11 1
  20   10   37 ar
  21   11   12 1
  22   11   46 1
  23   11   47 1
  24   12   26 ar
  25   12   13 ar
  26   13   14 ar
  27   13   48 1
  28   14   20 ar
  29   14   15 1
  30   15   16 2
  31   15   17 am
  32   17   18 1
  33   17   27 1
  34   18   19 2
  35   18   49 1
  36   19   20 1
  37   20   21 ar
  38   21   26 ar
  39   21   22 ar
  40   22   23 ar
  41   22   50 1
  42   23   24 ar
  43   23   51 1
  44   24   25 ar
  45   24   52 1
  46   25   26 ar
  47   25   53 1
  48   27   28 1
  49   27   34 1
  50   27   29 1
  51   29   30 1
  52   29   54 1
  53   29   55 1
  54   30   31 1
  55   30   56 1
  56   30   57 1
  57   31   32 1
  58   31   58 1
  59   31   59 1
  60   32   33 1
  61   32   60 1
  62   32   61 1
  63   33   34 1
  64   33   62 1
  65   33   63 1
  66   34   35 1
  67   34   36 1
  68   36   64 1
  69   37   38 ar
  70   37   65 1

#	End of record

