#	Name: ASD01881737
#	Creating user name:	WinNT
#	Creation time:	15. 06. 2019 19:43

#	Modifying user name:	WinNT
#	Modification time:	15. 06. 2019 19:43

#	Program:	/corina/corina34_cracker 3.40 0067  02.08.2006

@<TRIPOS>MOLECULE
ASD01881737
  40   44    0    0    0
SMALL
NO_CHARGES


@<TRIPOS>ATOM
   1 N1            -0.0154     1.2839     0.0091 N.pl3   
   2 N2             0.0021    -0.0041     0.0020 N.2     
   3 N3             1.2033    -0.4649    -0.0119 N.2     
   4 C4             2.0741     0.5645    -0.0147 C.ar    
   5 C5             1.2843     1.7298    -0.0009 C.ar    
   6 C6             3.4670     0.6759    -0.0271 C.ar    
   7 C7             4.0484     1.9285    -0.0255 C.ar    
   8 C8             3.2560     3.0739    -0.0118 C.ar    
   9 C9             1.8924     2.9784    -0.0004 C.ar    
  10 C10           -1.2133     2.1272     0.0196 C.3     
  11 C11           -1.6228     2.4135     1.4657 C.3     
  12 C12           -2.7884     3.3784     1.6921 C.3     
  13 C13           -2.9777     1.8797     1.9351 C.3     
  14 Br14           4.5472    -0.8761    -0.0451 Br      
  15 O15            5.4033     2.0444    -0.0370 O.3     
  16 C16            5.9411     3.3683    -0.0346 C.3     
  17 N17            7.4045     3.3009    -0.0481 N.pl3   
  18 N18            8.2330     3.2689    -1.1796 N.2     
  19 N19            9.4631     3.2101    -0.8079 N.2     
  20 C20            9.5457     3.1990     0.5377 C.ar    
  21 C21            8.2364     3.2627     1.0457 C.ar    
  22 C22           10.6244     3.1444     1.4297 C.ar    
  23 C23           10.3965     3.1476     2.7747 C.ar    
  24 C24            9.1024     3.2046     3.2757 C.ar    
  25 C25            8.0256     3.2725     2.4201 C.ar    
  26 H26            3.7236     4.0474    -0.0103 H       
  27 H27            1.2882     3.8735     0.0104 H       
  28 H28           -1.0007     3.0667    -0.4906 H       
  29 H29           -2.0254     1.6113    -0.4926 H       
  30 H30           -0.8089     2.4286     2.1906 H       
  31 H31           -2.7416     4.0280     2.5661 H       
  32 H32           -3.2635     3.8093     0.8107 H       
  33 H33           -3.5773     1.3246     1.2137 H       
  34 H34           -3.0553     1.5434     2.9690 H       
  35 H35            5.5939     3.9031    -0.9187 H       
  36 H36            5.6098     3.8935     0.8612 H       
  37 H37           11.6356     3.0995     1.0530 H       
  38 H38           11.2319     3.1050     3.4578 H       
  39 H39            8.9401     3.2062     4.3434 H       
  40 H40            7.0213     3.3191     2.8147 H       
@<TRIPOS>BOND
   1    1    2 1
   2    1    5 1
   3    1   10 1
   4    2    3 2
   5    3    4 1
   6    4    5 ar
   7    4    6 ar
   8    5    9 ar
   9    6    7 ar
  10    6   14 1
  11    7    8 ar
  12    7   15 1
  13    8    9 ar
  14    8   26 1
  15    9   27 1
  16   10   11 1
  17   10   28 1
  18   10   29 1
  19   11   12 1
  20   11   13 1
  21   11   30 1
  22   12   13 1
  23   12   31 1
  24   12   32 1
  25   13   33 1
  26   13   34 1
  27   15   16 1
  28   16   17 1
  29   16   35 1
  30   16   36 1
  31   17   18 1
  32   17   21 1
  33   18   19 2
  34   19   20 1
  35   20   21 ar
  36   20   22 ar
  37   21   25 ar
  38   22   23 ar
  39   22   37 1
  40   23   24 ar
  41   23   38 1
  42   24   25 ar
  43   24   39 1
  44   25   40 1

#	End of record

