#	Name: ASD07931325
#	Creating user name:	WinNT
#	Creation time:	15. 06. 2019 21:13

#	Modifying user name:	WinNT
#	Modification time:	15. 06. 2019 21:13

#	Program:	/corina/corina34_cracker 3.40 0067  02.08.2006

@<TRIPOS>MOLECULE
ASD07931325
  60   65    0    0    0
SMALL
NO_CHARGES


@<TRIPOS>ATOM
   1 C1            -0.0178     1.4608     0.0101 C.3     
   2 N2             0.0021    -0.0041     0.0020 N.am    
   3 N3             0.5952    -0.7998     0.9854 N.2     
   4 C4             0.4551    -2.0643     0.7116 C.2     
   5 C5            -0.2942    -2.1595    -0.5619 C.2     
   6 C6            -0.5553    -0.7781    -0.9541 C.2     
   7 O7            -1.1513    -0.3987    -1.9492 O.2     
   8 C8             0.8558    -3.3309     1.3544 C.ar    
   9 C9             0.5051    -4.5365     0.7246 C.ar    
  10 N10           -0.1977    -4.5276    -0.4680 N.pl3   
  11 C11           -0.5808    -3.3970    -1.0826 C.2     
  12 C12            1.5627    -3.3461     2.5520 C.ar    
  13 C13            1.9191    -4.5520     3.1204 C.ar    
  14 C14            1.5751    -5.7429     2.5015 C.ar    
  15 C15            0.8733    -5.7408     1.3139 C.ar    
  16 C16           -0.5399    -5.8104    -1.0874 C.3     
  17 C17           -1.8812    -6.2720    -0.5786 C.ar    
  18 C18           -3.0357    -5.9048    -1.2453 C.ar    
  19 C19           -4.2665    -6.3260    -0.7812 C.ar    
  20 C20           -4.3438    -7.1191     0.3557 C.ar    
  21 C21           -3.1828    -7.4865     1.0227 C.ar    
  22 C22           -1.9546    -7.0666     0.5507 C.ar    
  23 N23           -5.5915    -7.5477     0.8295 N.pl3   
  24 C24           -5.8070    -8.3192     1.9190 C.2     
  25 C25           -7.1422    -8.5062     2.0336 C.2     
  26 C26           -7.7643    -7.8273     0.9801 C.2     
  27 N27           -6.8365    -7.2477     0.2616 N.2     
  28 C28           -0.7006     1.9502     1.2585 C.3     
  29 C29            1.4278     1.9986    -0.0008 C.3     
  30 C30            1.5016     3.3818    -0.4476 C.3     
  31 C31            0.7289     4.3414     0.4804 C.3     
  32 C32           -0.7346     4.2602     0.1401 C.3     
  33 C33           -1.4909     3.2522     1.0265 C.3     
  34 H34           -0.5504     1.8245    -0.8686 H       
  35 H35           -1.1271    -3.4628    -2.0119 H       
  36 H36            1.8319    -2.4183     3.0348 H       
  37 H37            2.4681    -4.5675     4.0503 H       
  38 H38            1.8589    -6.6819     2.9534 H       
  39 H39            0.6110    -6.6755     0.8406 H       
  40 H40           -0.5834    -5.6910    -2.1700 H       
  41 H41            0.2192    -6.5504    -0.8337 H       
  42 H42           -2.9749    -5.2878    -2.1297 H       
  43 H43           -5.1678    -6.0383    -1.3019 H       
  44 H44           -3.2399    -8.1031     1.9075 H       
  45 H45           -1.0512    -7.3520     1.0691 H       
  46 H46           -5.0493    -8.7154     2.5789 H       
  47 H47           -7.6400    -9.0786     2.8024 H       
  48 H48           -8.8274    -7.7849     0.7944 H       
  49 H49           -1.3862     1.1795     1.6106 H       
  50 H50            0.0527     2.1269     2.0262 H       
  51 H51            1.8373     1.9308     1.0070 H       
  52 H52            2.0296     1.3800    -0.6667 H       
  53 H53            2.5475     3.6872    -0.4792 H       
  54 H54            1.0852     3.4509    -1.4525 H       
  55 H55            0.8802     4.0474     1.5190 H       
  56 H56            1.0837     5.3610     0.3301 H       
  57 H57           -1.1815     5.2463     0.2673 H       
  58 H58           -0.8382     3.9600    -0.9026 H       
  59 H59           -2.4398     3.0072     0.5493 H       
  60 H60           -1.6947     3.7164     1.9915 H       
@<TRIPOS>BOND
   1    1    2 1
   2    1   29 1
   3    1   28 1
   4    1   34 1
   5    2    3 1
   6    2    6 am
   7    3    4 2
   8    4    5 1
   9    4    8 1
  10    5    6 1
  11    5   11 2
  12    6    7 2
  13    8    9 ar
  14    8   12 ar
  15    9   10 1
  16    9   15 ar
  17   10   11 1
  18   10   16 1
  19   11   35 1
  20   12   13 ar
  21   12   36 1
  22   13   14 ar
  23   13   37 1
  24   14   15 ar
  25   14   38 1
  26   15   39 1
  27   16   17 1
  28   16   40 1
  29   16   41 1
  30   17   18 ar
  31   17   22 ar
  32   18   19 ar
  33   18   42 1
  34   19   20 ar
  35   19   43 1
  36   20   21 ar
  37   20   23 1
  38   21   22 ar
  39   21   44 1
  40   22   45 1
  41   23   24 1
  42   23   27 1
  43   24   25 2
  44   24   46 1
  45   25   26 1
  46   25   47 1
  47   26   27 2
  48   26   48 1
  49   28   33 1
  50   28   49 1
  51   28   50 1
  52   29   30 1
  53   29   51 1
  54   29   52 1
  55   30   31 1
  56   30   53 1
  57   30   54 1
  58   31   32 1
  59   31   55 1
  60   31   56 1
  61   32   33 1
  62   32   57 1
  63   32   58 1
  64   33   59 1
  65   33   60 1

#	End of record

