#	Name: ASD01814034
#	Creating user name:	WinNT
#	Creation time:	15. 06. 2019 19:31

#	Modifying user name:	WinNT
#	Modification time:	15. 06. 2019 19:31

#	Program:	/corina/corina34_cracker 3.40 0067  02.08.2006

@<TRIPOS>MOLECULE
ASD01814034
  54   58    0    0    0
SMALL
NO_CHARGES


@<TRIPOS>ATOM
   1 C1            -0.0167     1.3820     0.0096 C.ar    
   2 C2             0.0021    -0.0041     0.0020 C.ar    
   3 C3             1.1959    -0.6932    -0.0127 C.ar    
   4 C4             2.4016     0.0019    -0.0205 C.ar    
   5 C5             2.3831     1.4075    -0.0132 C.ar    
   6 C6             1.1665     2.0939     0.0022 C.ar    
   7 N7             3.6010    -0.6771    -0.0346 N.pl3   
   8 C8             4.7870    -0.0549    -0.0418 C.2     
   9 C9             4.8957     1.3208    -0.0358 C.2     
  10 C10            3.6666     2.1313    -0.0216 C.2     
  11 F11            1.1476     3.4448     0.0091 F       
  12 O12            3.7090     3.3491    -0.0163 O.2     
  13 C13            6.2161     1.9660    -0.0431 C.2     
  14 O14            6.3092     3.3109    -0.0372 O.3     
  15 O15            7.2244     1.2870    -0.0544 O.2     
  16 C16            3.5775    -2.1419    -0.0418 C.3     
  17 C17            3.5567    -2.6371    -1.4649 C.ar    
  18 C18            4.7454    -2.8829    -2.1274 C.ar    
  19 C19            4.7298    -3.3363    -3.4318 C.ar    
  20 C20            3.5184    -3.5458    -4.0781 C.ar    
  21 C21            2.3263    -3.2983    -3.4099 C.ar    
  22 C22            2.3488    -2.8500    -2.1038 C.ar    
  23 N23            3.4991    -4.0049    -5.4006 N.pl3   
  24 N24            4.4287    -3.6690    -6.3903 N.2     
  25 C25            4.1259    -4.2636    -7.5093 C.2     
  26 C26            2.9205    -5.0550    -7.2829 C.ar    
  27 C27            2.5680    -4.8619    -5.9331 C.ar    
  28 C28            4.8848    -4.1536    -8.8066 C.3     
  29 C29            4.6009    -2.7947    -9.4499 C.3     
  30 O30            6.2854    -4.2764    -8.5511 O.3     
  31 C31            2.1387    -5.8888    -8.0900 C.ar    
  32 C32            1.0394    -6.5017    -7.5619 C.ar    
  33 C33            0.6901    -6.3052    -6.2315 C.ar    
  34 C34            1.4420    -5.5014    -5.4219 C.ar    
  35 H35           -0.9604     1.9071     0.0170 H       
  36 H36           -0.9295    -0.5505     0.0080 H       
  37 H37            1.1956    -1.7731    -0.0177 H       
  38 H38            5.6884    -0.6497    -0.0521 H       
  39 H39            7.1990     3.6894    -0.0423 H       
  40 H40            4.4661    -2.5220     0.4622 H       
  41 H41            2.6865    -2.4935     0.4783 H       
  42 H42            5.6870    -2.7199    -1.6242 H       
  43 H43            5.6585    -3.5275    -3.9489 H       
  44 H44            1.3828    -3.4599    -3.9098 H       
  45 H45            1.4222    -2.6577    -1.5834 H       
  46 H46            4.5676    -4.9485    -9.4817 H       
  47 H47            4.9182    -1.9999    -8.7748 H       
  48 H48            5.1498    -2.7152   -10.3882 H       
  49 H49            3.5326    -2.7011    -9.6448 H       
  50 H50            6.6374    -3.6001    -7.9563 H       
  51 H51            2.4035    -6.0463    -9.1251 H       
  52 H52            0.4352    -7.1452    -8.1842 H       
  53 H53           -0.1834    -6.7982    -5.8309 H       
  54 H54            1.1596    -5.3571    -4.3895 H       
@<TRIPOS>BOND
   1    1    2 ar
   2    1    6 ar
   3    1   35 1
   4    2    3 ar
   5    2   36 1
   6    3    4 ar
   7    3   37 1
   8    4    5 ar
   9    4    7 1
  10    5    6 ar
  11    5   10 1
  12    6   11 1
  13    7    8 1
  14    7   16 1
  15    8    9 2
  16    8   38 1
  17    9   10 1
  18    9   13 1
  19   10   12 2
  20   13   14 1
  21   13   15 2
  22   14   39 1
  23   16   17 1
  24   16   40 1
  25   16   41 1
  26   17   18 ar
  27   17   22 ar
  28   18   19 ar
  29   18   42 1
  30   19   20 ar
  31   19   43 1
  32   20   21 ar
  33   20   23 1
  34   21   22 ar
  35   21   44 1
  36   22   45 1
  37   23   24 1
  38   23   27 1
  39   24   25 2
  40   25   26 1
  41   25   28 1
  42   26   27 ar
  43   26   31 ar
  44   27   34 ar
  45   28   29 1
  46   28   30 1
  47   28   46 1
  48   29   47 1
  49   29   48 1
  50   29   49 1
  51   30   50 1
  52   31   32 ar
  53   31   51 1
  54   32   33 ar
  55   32   52 1
  56   33   34 ar
  57   33   53 1
  58   34   54 1

#	End of record

