#	Name: ASD00731026
#	Creating user name:	WinNT
#	Creation time:	15. 06. 2019 18:37

#	Modifying user name:	WinNT
#	Modification time:	15. 06. 2019 18:37

#	Program:	/corina/corina34_cracker 3.40 0067  02.08.2006

@<TRIPOS>MOLECULE
ASD00731026
 223  225    0    0    0
SMALL
NO_CHARGES


@<TRIPOS>ATOM
   1 C1            -0.1918     0.8644     0.6852 C.2     
   2 O2            -0.2393    -0.3451     0.7609 O.2     
   3 N3             2.2050     0.5875     0.9455 N.am    
   4 C4             1.1353     1.5732     0.7720 C.3     
   5 C5            -3.5899     1.7416    -0.3378 C.2     
   6 O6            -3.2421     2.8218    -0.7657 O.2     
   7 N7            -1.3252     1.5742     0.5180 N.am    
   8 C8            -2.6147     0.8848     0.4276 C.3     
   9 C9            -3.1562     0.6293     1.8356 C.3     
  10 C10           -2.2290    -0.3410     2.5703 C.3     
  11 C11           -2.7705    -0.5965     3.9783 C.3     
  12 N12           -1.8827    -1.5256     4.6818 N.pl3   
  13 C13           -2.1681    -1.9055     5.9719 C.2     
  14 N14           -3.2286    -1.4390     6.5691 N.2     
  15 N15           -1.3350    -2.7774     6.6320 N.pl3   
  16 C16           -7.2143     1.8165    -0.7293 C.2     
  17 O17           -7.4511     0.6842    -0.3652 O.2     
  18 N18           -4.8486     1.3075    -0.5468 N.am    
  19 C19           -5.8283     2.1848    -1.1924 C.3     
  20 C20           -5.7374     2.0206    -2.7108 C.3     
  21 C21           -6.6547     3.0397    -3.3898 C.3     
  22 C22           -6.1348     4.4531    -3.1200 C.3     
  23 C23           -6.6745     2.7828    -4.8979 C.3     
  24 C24          -10.5277     3.3370    -0.9985 C.2     
  25 O25          -10.1116     4.2591    -1.6674 O.2     
  26 N26           -8.1907     2.7455    -0.7199 N.am    
  27 C27           -9.5619     2.3635    -0.3735 C.3     
  28 C28           -9.7286     2.3849     1.1472 C.3     
  29 C29           -8.8384     1.3094     1.7731 C.3     
  30 C30           -9.0050     1.3309     3.2938 C.3     
  31 N31           -8.1527     0.3010     3.8931 N.pl3   
  32 C32           -8.1352     0.1314     5.2573 C.2     
  33 N33           -8.8770     0.8869     6.0175 N.2     
  34 N34           -7.3353    -0.8351     5.8196 N.pl3   
  35 C35          -14.0729     4.1473    -0.6266 C.2     
  36 O36          -14.1895     3.4393     0.3512 O.2     
  37 N37          -11.8539     3.1829    -0.8140 N.am    
  38 C38          -12.7928     4.1293    -1.4216 C.3     
  39 C39          -13.0913     3.6996    -2.8594 C.3     
  40 C40          -11.8152     3.8011    -3.6973 C.3     
  41 C41          -12.1137     3.3714    -5.1351 C.3     
  42 C42          -10.8376     3.4728    -5.9731 C.3     
  43 N43          -11.1243     3.0603    -7.3535 N.3     
  44 C44          -17.4681     5.4108    -1.1156 C.2     
  45 O45          -17.2585     5.6851    -2.2782 O.2     
  46 N46          -15.0882     4.9501    -1.0022 N.am    
  47 C47          -16.3326     4.9676    -0.2294 C.3     
  48 C48          -16.1912     5.9403     0.9431 C.3     
  49 C49          -15.1386     5.4313     1.8939 C.2     
  50 C50          -15.3472     4.6921     2.9948 C.2     
  51 N51          -14.1541     4.4184     3.6061 N.pl3   
  52 C52          -13.1222     4.9895     2.8955 C.ar    
  53 C53          -11.7425     5.0203     3.0683 C.ar    
  54 C54          -10.9540     5.6934     2.1607 C.ar    
  55 C55          -11.5224     6.3424     1.0735 C.ar    
  56 C56          -12.8758     6.3253     0.8847 C.ar    
  57 C57          -13.6930     5.6441     1.7885 C.ar    
  58 C58          -20.9127     6.5347    -0.6314 C.2     
  59 O59          -20.7821     6.5973     0.5727 O.2     
  60 N60          -18.7165     5.5024    -0.6161 N.am    
  61 C61          -19.8204     5.9333    -1.4776 C.3     
  62 C62          -20.3720     4.7275    -2.2411 C.3     
  63 C63          -19.3003     4.1930    -3.1932 C.3     
  64 S64          -19.9544     2.7634    -4.0984 S.3     
  65 C65          -18.5630     2.2793    -5.1569 C.3     
  66 C66          -24.4147     7.4672    -1.1111 C.2     
  67 O67          -24.4621     6.9444    -2.2045 O.2     
  68 N68          -22.0349     7.0030    -1.2127 N.am    
  69 C69          -23.0968     7.5877    -0.3901 C.3     
  70 C70          -22.7888     9.0643    -0.1338 C.3     
  71 C71          -21.5345     9.1795     0.6935 C.ar    
  72 C72          -20.3028     9.2692     0.0725 C.ar    
  73 C73          -19.1522     9.3749     0.8314 C.ar    
  74 C74          -19.2334     9.3914     2.2112 C.ar    
  75 C75          -20.4652     9.3027     2.8322 C.ar    
  76 C76          -21.6162     9.2013     2.0733 C.ar    
  77 C77          -26.9847     8.9850    -2.1878 C.2     
  78 O78          -26.1196     9.8246    -2.2683 O.2     
  79 N79          -25.5405     7.9404    -0.5410 N.am    
  80 C80          -26.8216     7.8233    -1.2418 C.3     
  81 C81          -27.9629     7.8311    -0.2230 C.3     
  82 C82          -29.2905     7.5840    -0.9423 C.3     
  83 C83          -30.4152     7.4677     0.0884 C.3     
  84 C84          -28.0092     9.1889     0.4807 C.3     
  85 O85          -28.0911     9.0869    -2.9410 O.3     
  86 C86            3.4860     0.9940     1.0476 C.2     
  87 O87            3.7530     2.1759     0.9960 O.2     
  88 C88           21.8380    -2.1894     3.1109 C.3     
  89 C89           20.7208    -1.1598     2.9297 C.3     
  90 C90           19.3735    -1.8795     2.8416 C.3     
  91 C91           18.2563    -0.8499     2.6605 C.3     
  92 C92           16.9090    -1.5696     2.5724 C.3     
  93 C93           15.7918    -0.5400     2.3912 C.3     
  94 C94           14.4444    -1.2597     2.3031 C.3     
  95 C95           13.3272    -0.2301     2.1219 C.3     
  96 C96           11.9799    -0.9498     2.0339 C.3     
  97 C97           10.8627     0.0798     1.8527 C.3     
  98 C98            9.5154    -0.6399     1.7646 C.3     
  99 C99            8.3982     0.3897     1.5834 C.3     
 100 C100           7.0509    -0.3300     1.4954 C.3     
 101 C101           5.9337     0.6996     1.3142 C.3     
 102 C102           4.5864    -0.0201     1.2261 C.3     
 103 H103           1.9914    -0.3578     0.9868 H       
 104 H104           1.3064     2.1375    -0.1448 H       
 105 H105           1.1281     2.2551     1.6223 H       
 106 H106          -1.2872     2.5416     0.4575 H       
 107 H107          -2.4829    -0.0659    -0.0890 H       
 108 H108          -3.2041     1.5707     2.3828 H       
 109 H109          -4.1545     0.1970     1.7680 H       
 110 H110          -2.1810    -1.2825     2.0231 H       
 111 H111          -1.2306     0.0912     2.6379 H       
 112 H112          -2.8184     0.3449     4.5255 H       
 113 H113          -3.7688    -1.0288     3.9107 H       
 114 H114          -1.0934    -1.8727     4.2373 H       
 115 H115          -3.4301    -1.7071     7.4793 H       
 116 H116          -0.5457    -3.1245     6.1876 H       
 117 H117          -1.5364    -3.0454     7.5423 H       
 118 H118          -5.1058     0.4141    -0.2699 H       
 119 H119          -5.6195     3.2208    -0.9258 H       
 120 H120          -4.7094     2.1857    -3.0332 H       
 121 H121          -6.0472     1.0126    -2.9865 H       
 122 H122          -7.6645     2.9418    -2.9912 H       
 123 H123          -5.1473     4.5685    -3.5668 H       
 124 H124          -6.8185     5.1812    -3.5565 H       
 125 H125          -6.0683     4.6166    -2.0444 H       
 126 H126          -7.0449     1.7758    -5.0901 H       
 127 H127          -7.3280     3.5088    -5.3816 H       
 128 H128          -5.6647     2.8807    -5.2964 H       
 129 H129          -7.9855     3.6670    -0.9426 H       
 130 H130          -9.7649     1.3598    -0.7471 H       
 131 H131          -9.4400     3.3637     1.5306 H       
 132 H132         -10.7700     2.1878     1.4014 H       
 133 H133          -9.1269     0.3307     1.3897 H       
 134 H134          -7.7969     1.5066     1.5189 H       
 135 H135          -8.7165     2.3096     3.6772 H       
 136 H136         -10.0465     1.1337     3.5480 H       
 137 H137          -7.6006    -0.2612     3.3273 H       
 138 H138          -8.8646     0.7672     6.9800 H       
 139 H139          -6.7832    -1.3973     5.2539 H       
 140 H140          -7.3229    -0.9547     6.7821 H       
 141 H141         -12.1867     2.4454    -0.2790 H       
 142 H142         -12.3527     5.1265    -1.4243 H       
 143 H143         -13.4482     2.6697    -2.8641 H       
 144 H144         -13.8562     4.3512    -3.2819 H       
 145 H145         -11.4583     4.8310    -3.6926 H       
 146 H146         -11.0503     3.1495    -3.2748 H       
 147 H147         -12.4706     2.3415    -5.1399 H       
 148 H148         -12.8786     4.0229    -5.5576 H       
 149 H149         -10.4808     4.5027    -5.9683 H       
 150 H150         -10.0728     2.8213    -5.5506 H       
 151 H151         -10.2965     3.1185    -7.9276 H       
 152 H152         -11.5174     2.1314    -7.3791 H       
 153 H153         -14.9949     5.5164    -1.7842 H       
 154 H154         -16.5380     3.9671     0.1513 H       
 155 H155         -15.8985     6.9211     0.5683 H       
 156 H156         -17.1444     6.0206     1.4656 H       
 157 H157         -16.3138     4.3624     3.3461 H       
 158 H158         -14.0506     3.8995     4.4191 H       
 159 H159         -11.2907     4.5187     3.9113 H       
 160 H160          -9.8828     5.7165     2.2968 H       
 161 H161         -10.8902     6.8655     0.3713 H       
 162 H162         -13.3112     6.8329     0.0367 H       
 163 H163         -18.8842     5.2831     0.3138 H       
 164 H164         -19.4585     6.6778    -2.1867 H       
 165 H165         -20.6519     3.9467    -1.5339 H       
 166 H166         -21.2486     5.0302    -2.8138 H       
 167 H167         -19.0205     4.9737    -3.9004 H       
 168 H168         -18.4237     3.8903    -2.6205 H       
 169 H169         -18.3016     3.1080    -5.8149 H       
 170 H170         -17.7049     2.0245    -4.5350 H       
 171 H171         -18.8466     1.4145    -5.7567 H       
 172 H172         -22.1394     6.9529    -2.1758 H       
 173 H173         -23.1531     7.0579     0.5608 H       
 174 H174         -22.6447     9.5759    -1.0854 H       
 175 H175         -23.6208     9.5212     0.4021 H       
 176 H176         -20.2393     9.2563    -1.0055 H       
 177 H177         -18.1898     9.4442     0.3462 H       
 178 H178         -18.3344     9.4733     2.8042 H       
 179 H179         -20.5287     9.3152     3.9103 H       
 180 H180         -22.5789     9.1357     2.5584 H       
 181 H181         -25.5025     8.3585     0.3335 H       
 182 H182         -26.8437     6.8903    -1.8050 H       
 183 H183         -27.7974     7.0454     0.5141 H       
 184 H184         -29.4992     8.4155    -1.6155 H       
 185 H185         -29.2263     6.6594    -1.5159 H       
 186 H186         -31.3609     7.2916    -0.4241 H       
 187 H187         -30.2064     6.6362     0.7616 H       
 188 H188         -30.4793     8.3923     0.6621 H       
 189 H189         -28.8223     9.1945     1.2065 H       
 190 H190         -27.0634     9.3649     0.9931 H       
 191 H191         -28.1747     9.9746    -0.2565 H       
 192 H192         -28.1506     9.8495    -3.5327 H       
 193 H193          22.7979    -1.6767     3.1736 H       
 194 H194          21.6669    -2.7537     4.0276 H       
 195 H195          21.8452    -2.8712     2.2605 H       
 196 H196          20.7136    -0.4780     3.7801 H       
 197 H197          20.8919    -0.5955     2.0130 H       
 198 H198          19.3807    -2.5613     1.9913 H       
 199 H199          19.2024    -2.4438     3.7584 H       
 200 H200          18.2491    -0.1681     3.5108 H       
 201 H201          18.4274    -0.2856     1.7437 H       
 202 H202          16.9161    -2.2514     1.7220 H       
 203 H203          16.7378    -2.1339     3.4891 H       
 204 H204          15.7846     0.1418     3.2416 H       
 205 H205          15.9629     0.0243     1.4745 H       
 206 H206          14.4516    -1.9415     1.4528 H       
 207 H207          14.2733    -1.8240     3.2199 H       
 208 H208          13.3201     0.4517     2.9723 H       
 209 H209          13.4984     0.3342     1.2052 H       
 210 H210          11.9871    -1.6316     1.1835 H       
 211 H211          11.8088    -1.5141     2.9506 H       
 212 H212          10.8556     0.7616     2.7031 H       
 213 H213          11.0338     0.6441     0.9360 H       
 214 H214           9.5226    -1.3217     0.9142 H       
 215 H215           9.3443    -1.2042     2.6814 H       
 216 H216           8.3910     1.0715     2.4338 H       
 217 H217           8.5693     0.9540     0.6667 H       
 218 H218           7.0580    -1.0118     0.6450 H       
 219 H219           6.8798    -0.8943     2.4121 H       
 220 H220           5.9265     1.3814     2.1645 H       
 221 H221           6.1048     1.2638     0.3974 H       
 222 H222           4.4152    -0.5844     2.1428 H       
 223 H223           4.5935    -0.7019     0.3757 H       
@<TRIPOS>BOND
   1    1    2 2
   2    1    4 1
   3    1    7 am
   4    3    4 1
   5    3   86 am
   6    3  103 1
   7    4  104 1
   8    4  105 1
   9    5    6 2
  10    5    8 1
  11    5   18 am
  12    7    8 1
  13    7  106 1
  14    8    9 1
  15    8  107 1
  16    9   10 1
  17    9  108 1
  18    9  109 1
  19   10   11 1
  20   10  110 1
  21   10  111 1
  22   11   12 1
  23   11  112 1
  24   11  113 1
  25   12   13 1
  26   12  114 1
  27   13   14 2
  28   13   15 1
  29   14  115 1
  30   15  116 1
  31   15  117 1
  32   16   17 2
  33   16   19 1
  34   16   26 am
  35   18   19 1
  36   18  118 1
  37   19   20 1
  38   19  119 1
  39   20   21 1
  40   20  120 1
  41   20  121 1
  42   21   22 1
  43   21   23 1
  44   21  122 1
  45   22  123 1
  46   22  124 1
  47   22  125 1
  48   23  126 1
  49   23  127 1
  50   23  128 1
  51   24   25 2
  52   24   27 1
  53   24   37 am
  54   26   27 1
  55   26  129 1
  56   27   28 1
  57   27  130 1
  58   28   29 1
  59   28  131 1
  60   28  132 1
  61   29   30 1
  62   29  133 1
  63   29  134 1
  64   30   31 1
  65   30  135 1
  66   30  136 1
  67   31   32 1
  68   31  137 1
  69   32   33 2
  70   32   34 1
  71   33  138 1
  72   34  139 1
  73   34  140 1
  74   35   36 2
  75   35   38 1
  76   35   46 am
  77   37   38 1
  78   37  141 1
  79   38   39 1
  80   38  142 1
  81   39   40 1
  82   39  143 1
  83   39  144 1
  84   40   41 1
  85   40  145 1
  86   40  146 1
  87   41   42 1
  88   41  147 1
  89   41  148 1
  90   42   43 1
  91   42  149 1
  92   42  150 1
  93   43  151 1
  94   43  152 1
  95   44   45 2
  96   44   47 1
  97   44   60 am
  98   46   47 1
  99   46  153 1
 100   47   48 1
 101   47  154 1
 102   48   49 1
 103   48  155 1
 104   48  156 1
 105   49   50 2
 106   49   57 1
 107   50   51 1
 108   50  157 1
 109   51   52 1
 110   51  158 1
 111   52   53 ar
 112   52   57 ar
 113   53   54 ar
 114   53  159 1
 115   54   55 ar
 116   54  160 1
 117   55   56 ar
 118   55  161 1
 119   56   57 ar
 120   56  162 1
 121   58   59 2
 122   58   61 1
 123   58   68 am
 124   60   61 1
 125   60  163 1
 126   61   62 1
 127   61  164 1
 128   62   63 1
 129   62  165 1
 130   62  166 1
 131   63   64 1
 132   63  167 1
 133   63  168 1
 134   64   65 1
 135   65  169 1
 136   65  170 1
 137   65  171 1
 138   66   67 2
 139   66   69 1
 140   66   79 am
 141   68   69 1
 142   68  172 1
 143   69   70 1
 144   69  173 1
 145   70   71 1
 146   70  174 1
 147   70  175 1
 148   71   72 ar
 149   71   76 ar
 150   72   73 ar
 151   72  176 1
 152   73   74 ar
 153   73  177 1
 154   74   75 ar
 155   74  178 1
 156   75   76 ar
 157   75  179 1
 158   76  180 1
 159   77   78 2
 160   77   80 1
 161   77   85 1
 162   79   80 1
 163   79  181 1
 164   80   81 1
 165   80  182 1
 166   81   82 1
 167   81   84 1
 168   81  183 1
 169   82   83 1
 170   82  184 1
 171   82  185 1
 172   83  186 1
 173   83  187 1
 174   83  188 1
 175   84  189 1
 176   84  190 1
 177   84  191 1
 178   85  192 1
 179   86   87 2
 180   86  102 1
 181   88   89 1
 182   88  193 1
 183   88  194 1
 184   88  195 1
 185   89   90 1
 186   89  196 1
 187   89  197 1
 188   90   91 1
 189   90  198 1
 190   90  199 1
 191   91   92 1
 192   91  200 1
 193   91  201 1
 194   92   93 1
 195   92  202 1
 196   92  203 1
 197   93   94 1
 198   93  204 1
 199   93  205 1
 200   94   95 1
 201   94  206 1
 202   94  207 1
 203   95   96 1
 204   95  208 1
 205   95  209 1
 206   96   97 1
 207   96  210 1
 208   96  211 1
 209   97   98 1
 210   97  212 1
 211   97  213 1
 212   98   99 1
 213   98  214 1
 214   98  215 1
 215   99  100 1
 216   99  216 1
 217   99  217 1
 218  100  101 1
 219  100  218 1
 220  100  219 1
 221  101  102 1
 222  101  220 1
 223  101  221 1
 224  102  222 1
 225  102  223 1

#	End of record

