#	Name: ASD01870315
#	Creating user name:	WinNT
#	Creation time:	15. 06. 2019 19:39

#	Modifying user name:	WinNT
#	Modification time:	15. 06. 2019 19:39

#	Program:	/corina/corina34_cracker 3.40 0067  02.08.2006

@<TRIPOS>MOLECULE
ASD01870315
  30   32    0    0    0
SMALL
NO_CHARGES


@<TRIPOS>ATOM
   1 C1            -0.0162     1.3436     0.0094 C.2     
   2 N2             0.1064     0.2564    -0.7777 N.am    
   3 O3             0.9203     1.7101     0.6873 O.2     
   4 C4             1.3323    -0.3808    -0.8937 C.2     
   5 O5             1.5827    -1.4666    -1.6415 O.3     
   6 C6             2.8873    -1.7794    -1.4888 C.2     
   7 C7             3.4168    -0.8780    -0.6476 C.2     
   8 N8             2.4404    -0.0204    -0.2963 N.2     
   9 C9            -1.3149     2.1073     0.0426 C.3     
  10 C10           -2.1407     1.6422     1.2151 C.ar    
  11 C11           -2.8280     2.5393     2.0142 C.ar    
  12 O12           -2.7884     3.8778     1.7857 O.3     
  13 C13           -2.3374     4.3234     0.5059 C.3     
  14 C14           -1.0225     3.6036     0.1793 C.3     
  15 C15           -2.2058     0.2863     1.4883 C.ar    
  16 C16           -2.9558    -0.1753     2.5527 C.ar    
  17 C17           -3.6457     0.7181     3.3508 C.ar    
  18 C18           -3.5827     2.0708     3.0848 C.ar    
  19 H19           -0.6631    -0.0802    -1.2630 H       
  20 H20            3.4077    -2.6020    -1.9566 H       
  21 H21            4.4438    -0.8441    -0.3151 H       
  22 H22           -1.8644     1.9287    -0.8817 H       
  23 H23           -3.0850     4.0842    -0.2505 H       
  24 H24           -2.1703     5.4002     0.5300 H       
  25 H25           -0.3053     3.7658     0.9838 H       
  26 H26           -0.6172     3.9859    -0.7576 H       
  27 H27           -1.6680    -0.4137     0.8661 H       
  28 H28           -3.0028    -1.2339     2.7614 H       
  29 H29           -4.2334     0.3577     4.1821 H       
  30 H30           -4.1215     2.7679     3.7094 H       
@<TRIPOS>BOND
   1    1    2 am
   2    1    3 2
   3    1    9 1
   4    2    4 1
   5    2   19 1
   6    4    5 1
   7    4    8 2
   8    5    6 1
   9    6    7 2
  10    6   20 1
  11    7    8 1
  12    7   21 1
  13    9   10 1
  14    9   14 1
  15    9   22 1
  16   10   15 ar
  17   10   11 ar
  18   11   12 1
  19   11   18 ar
  20   12   13 1
  21   13   14 1
  22   13   23 1
  23   13   24 1
  24   14   25 1
  25   14   26 1
  26   15   16 ar
  27   15   27 1
  28   16   17 ar
  29   16   28 1
  30   17   18 ar
  31   17   29 1
  32   18   30 1

#	End of record

