#	Name: ASD01510033
#	Creating user name:	WinNT
#	Creation time:	15. 06. 2019 19:21

#	Modifying user name:	WinNT
#	Modification time:	15. 06. 2019 19:21

#	Program:	/corina/corina34_cracker 3.40 0067  02.08.2006

@<TRIPOS>MOLECULE
ASD01510033
  64   66    0    0    0
SMALL
NO_CHARGES


@<TRIPOS>ATOM
   1 C1             0.3148     1.9668     0.5615 C.3     
   2 C2             0.2195     0.4404     0.6070 C.3     
   3 O3             1.0089    -0.0540     1.6907 O.3     
   4 C4             1.0332    -1.3980     1.8717 C.ar    
   5 N5             0.3456    -2.1990     1.0647 N.ar    
   6 C6             0.3639    -3.5122     1.2345 C.ar    
   7 N7             1.0607    -4.0807     2.2066 N.ar    
   8 C8             1.7734    -3.3457     3.0537 C.ar    
   9 C9             1.7848    -1.9590     2.9040 C.ar    
  10 S10            2.7143    -0.9402     4.0007 S.3     
  11 C11            4.2515    -0.8880     3.1410 C.ar    
  12 N12            5.2566    -0.1953     3.6571 N.ar    
  13 C13            6.4309    -0.1341     3.0362 C.ar    
  14 N14            7.4809     0.5948     3.5850 N.am    
  15 C15            7.2824     1.3293     4.6975 C.2     
  16 O16            6.1687     1.4303     5.1666 O.2     
  17 C17            8.4444     2.0250     5.3584 C.3     
  18 C18            6.5957    -0.8091     1.8305 C.ar    
  19 C19            5.5179    -1.5259     1.3194 C.ar    
  20 N20            4.3743    -1.5468     1.9977 N.ar    
  21 N21            5.6370    -2.2159     0.1175 N.am    
  22 C22            4.6234    -2.9898    -0.3185 C.2     
  23 O23            3.5737    -3.0129     0.2883 O.2     
  24 C24            4.7944    -3.8265    -1.5602 C.3     
  25 O25            2.4843    -3.9361     4.0465 O.3     
  26 C26            2.4245    -5.3615     4.1279 C.3     
  27 C27            3.2825    -5.8418     5.3001 C.3     
  28 N28           -0.3669    -4.3138     0.3713 N.3     
  29 C29           -0.2204    -5.7338     0.7201 C.3     
  30 C30           -1.1026    -6.5769    -0.2036 C.3     
  31 N31           -0.7138    -6.3379    -1.6005 N.3     
  32 C32           -0.8603    -4.9179    -1.9493 C.3     
  33 C33            0.0219    -4.0747    -1.0256 C.3     
  34 C34           -1.4882    -7.1873    -2.5152 C.3     
  35 H35            1.3543     2.2618     0.4180 H       
  36 H36           -0.2873     2.3440    -0.2651 H       
  37 H37           -0.0546     2.3820     1.4992 H       
  38 H38           -0.8199     0.1454     0.7504 H       
  39 H39            0.5890     0.0252    -0.3307 H       
  40 H40            8.3560     0.5744     3.1670 H       
  41 H41            8.5559     3.0246     4.9384 H       
  42 H42            8.2612     2.0996     6.4303 H       
  43 H43            9.3564     1.4540     5.1844 H       
  44 H44            7.5379    -0.7771     1.3035 H       
  45 H45            6.4495    -2.1400    -0.4069 H       
  46 H46            5.6172    -4.5267    -1.4160 H       
  47 H47            3.8759    -4.3802    -1.7546 H       
  48 H48            5.0139    -3.1776    -2.4082 H       
  49 H49            1.3916    -5.6737     4.2817 H       
  50 H50            2.8007    -5.7945     3.2009 H       
  51 H51            3.2369    -6.9291     5.3622 H       
  52 H52            4.3154    -5.5297     5.1462 H       
  53 H53            2.9063    -5.4089     6.2270 H       
  54 H54            0.8211    -6.0321     0.6003 H       
  55 H55           -0.5263    -5.8874     1.7550 H       
  56 H56           -0.9735    -7.6328     0.0342 H       
  57 H57           -2.1469    -6.2974    -0.0639 H       
  58 H58           -0.5544    -4.7642    -2.9842 H       
  59 H59           -1.9018    -4.6195    -1.8295 H       
  60 H60           -0.1072    -3.0189    -1.2635 H       
  61 H61            1.0662    -4.3542    -1.1653 H       
  62 H62           -2.5498    -6.9662    -2.4053 H       
  63 H63           -1.1805    -6.9903    -3.5422 H       
  64 H64           -1.3088    -8.2357    -2.2770 H       
@<TRIPOS>BOND
   1    1    2 1
   2    1   35 1
   3    1   36 1
   4    1   37 1
   5    2    3 1
   6    2   38 1
   7    2   39 1
   8    3    4 1
   9    4    5 ar
  10    4    9 ar
  11    5    6 ar
  12    6    7 ar
  13    6   28 1
  14    7    8 ar
  15    8    9 ar
  16    8   25 1
  17    9   10 1
  18   10   11 1
  19   11   12 ar
  20   11   20 ar
  21   12   13 ar
  22   13   14 1
  23   13   18 ar
  24   14   15 am
  25   14   40 1
  26   15   16 2
  27   15   17 1
  28   17   41 1
  29   17   42 1
  30   17   43 1
  31   18   19 ar
  32   18   44 1
  33   19   20 ar
  34   19   21 1
  35   21   22 am
  36   21   45 1
  37   22   23 2
  38   22   24 1
  39   24   46 1
  40   24   47 1
  41   24   48 1
  42   25   26 1
  43   26   27 1
  44   26   49 1
  45   26   50 1
  46   27   51 1
  47   27   52 1
  48   27   53 1
  49   28   29 1
  50   28   33 1
  51   29   30 1
  52   29   54 1
  53   29   55 1
  54   30   31 1
  55   30   56 1
  56   30   57 1
  57   31   32 1
  58   31   34 1
  59   32   33 1
  60   32   58 1
  61   32   59 1
  62   33   60 1
  63   33   61 1
  64   34   62 1
  65   34   63 1
  66   34   64 1

#	End of record

