#	Name: ASD01911808
#	Creating user name:	WinNT
#	Creation time:	15. 06. 2019 19:58

#	Modifying user name:	WinNT
#	Modification time:	15. 06. 2019 19:58

#	Program:	/corina/corina34_cracker 3.40 0067  02.08.2006

@<TRIPOS>MOLECULE
ASD01911808
  40   41    0    0    0
SMALL
NO_CHARGES


@<TRIPOS>ATOM
   1 C1             0.0777     1.5710     0.1387 C.2     
   2 C2             0.0750     0.0657     0.0683 C.3     
   3 C3             1.4923    -0.4346    -0.0419 C.2     
   4 O4             1.1246     2.1710     0.2017 O.2     
   5 O5             1.9426    -1.1733     0.8083 O.2     
   6 N6             2.2595    -0.0612    -1.0852 N.am    
   7 C7            -0.5695    -0.5030     1.3340 C.3     
   8 C8            -1.4872    -3.8202     0.0327 C.ar    
   9 N9            -1.3560    -2.5152     0.1609 N.ar    
  10 C10           -0.7151    -1.9966     1.1961 C.ar    
  11 C11           -0.1792    -2.8455     2.1514 C.ar    
  12 C12           -0.3376    -4.2122     1.9821 C.ar    
  13 N13           -0.9908    -4.6578     0.9212 N.ar    
  14 C14            3.6112    -0.4331    -1.1304 C.ar    
  15 C15            4.2697    -0.5134    -2.3524 C.ar    
  16 C16            5.6018    -0.8800    -2.3962 C.ar    
  17 C17            6.2814    -1.1679    -1.2192 C.ar    
  18 C18            5.6219    -1.0872     0.0013 C.ar    
  19 C19            4.2929    -0.7155     0.0453 C.ar    
  20 S20            7.9792    -1.6359    -1.2739 S.3     
  21 C21            8.3873    -1.8962     0.4743 C.3     
  22 F22            3.6078    -0.2336    -3.4965 F       
  23 O23           -1.0827     2.2456     0.1260 O.3     
  24 C24           -1.0042     3.6937     0.1966 C.3     
  25 H25           -0.4928    -0.2562    -0.8047 H       
  26 H26            1.8769     0.4648    -1.8049 H       
  27 H27            0.0596    -0.2772     2.1950 H       
  28 H28           -1.5526    -0.0536     1.4745 H       
  29 H29           -2.0194    -4.2137    -0.8207 H       
  30 H30            0.3494    -2.4518     3.0069 H       
  31 H31            0.0670    -4.9039     2.7062 H       
  32 H32            6.1140    -0.9429    -3.3450 H       
  33 H33            6.1502    -1.3114     0.9162 H       
  34 H34            3.7823    -0.6485     0.9947 H       
  35 H35            8.2255    -0.9707     1.0269 H       
  36 H36            7.7498    -2.6799     0.8834 H       
  37 H37            9.4320    -2.1944     0.5630 H       
  38 H38           -0.5057     3.9859     1.1209 H       
  39 H39           -0.4379     4.0689    -0.6558 H       
  40 H40           -2.0099     4.1135     0.1778 H       
@<TRIPOS>BOND
   1    1    2 1
   2    1    4 2
   3    1   23 1
   4    2    3 1
   5    2    7 1
   6    2   25 1
   7    3    5 2
   8    3    6 am
   9    6   14 1
  10    6   26 1
  11    7   10 1
  12    7   27 1
  13    7   28 1
  14    8    9 ar
  15    8   13 ar
  16    8   29 1
  17    9   10 ar
  18   10   11 ar
  19   11   12 ar
  20   11   30 1
  21   12   13 ar
  22   12   31 1
  23   14   15 ar
  24   14   19 ar
  25   15   16 ar
  26   15   22 1
  27   16   17 ar
  28   16   32 1
  29   17   18 ar
  30   17   20 1
  31   18   19 ar
  32   18   33 1
  33   19   34 1
  34   20   21 1
  35   21   35 1
  36   21   36 1
  37   21   37 1
  38   23   24 1
  39   24   38 1
  40   24   39 1
  41   24   40 1

#	End of record

