#	Name: ASD00069149
#	Creating user name:	WinNT
#	Creation time:	15. 06. 2019 18:29

#	Modifying user name:	WinNT
#	Modification time:	15. 06. 2019 18:29

#	Program:	/corina/corina34_cracker 3.40 0067  02.08.2006

@<TRIPOS>MOLECULE
ASD00069149
  55   58    0    0    0
SMALL
NO_CHARGES


@<TRIPOS>ATOM
   1 C1            -0.0969     1.1971    -0.5382 C.2     
   2 N2             0.0008    -0.0057    -0.0190 N.2     
   3 C3             1.2471    -0.4635    -0.2061 C.2     
   4 C4             1.9572     0.5114    -0.8780 C.2     
   5 N5             1.1097     1.5436    -1.0806 N.pl3   
   6 C6            -1.3108     2.0340    -0.5413 C.2     
   7 O7            -1.2877     3.1370    -1.0532 O.2     
   8 N8            -2.4460     1.5768     0.0232 N.am    
   9 C9            -3.5635     2.4145     0.1262 C.ar    
  10 C10           -4.8480     1.8824     0.0209 C.ar    
  11 C11           -5.9516     2.7186     0.1244 C.ar    
  12 C12           -5.7738     4.0757     0.3316 C.ar    
  13 C13           -4.4993     4.6016     0.4358 C.ar    
  14 C14           -3.3955     3.7750     0.3391 C.ar    
  15 F15           -7.1983     2.2081     0.0226 F       
  16 N16           -5.0244     0.5088    -0.1892 N.3     
  17 C17           -5.7937    -0.0964     0.9054 C.3     
  18 C18           -5.8421    -1.6145     0.7181 C.3     
  19 C19           -6.4950    -1.9372    -0.6288 C.3     
  20 C20           -5.7026    -1.2553    -1.7476 C.3     
  21 C21           -5.6582     0.2524    -1.4888 C.3     
  22 C22           -6.4913    -3.4512    -0.8491 C.3     
  23 N23           -7.2231    -3.7683    -2.0828 N.3     
  24 C24            1.7672    -1.7754     0.2292 C.2     
  25 C25            1.0447    -2.7271     0.8945 C.2     
  26 C26            1.7357    -3.8649     1.1948 C.2     
  27 C27            3.0438    -3.8674     0.7795 C.2     
  28 S28            3.4067    -2.3526    -0.0364 S.3     
  29 C29            3.9552    -4.9244     0.9727 C.2     
  30 O30            3.6010    -5.9346     1.5475 O.2     
  31 C31            5.3694    -4.8020     0.4665 C.3     
  32 H32            2.9920     0.4590    -1.1829 H       
  33 H33            1.3187     2.3781    -1.5289 H       
  34 H34           -2.4890     0.6674     0.3582 H       
  35 H35           -6.6327     4.7254     0.4116 H       
  36 H36           -4.3657     5.6611     0.5975 H       
  37 H37           -2.4018     4.1892     0.4252 H       
  38 H38           -5.3165     0.1371     1.8571 H       
  39 H39           -6.8081     0.3026     0.9004 H       
  40 H40           -4.8289    -2.0160     0.7369 H       
  41 H41           -6.4264    -2.0619     1.5222 H       
  42 H42           -7.5213    -1.5700    -0.6334 H       
  43 H43           -4.6872    -1.6511    -1.7676 H       
  44 H44           -6.1871    -1.4461    -2.7051 H       
  45 H45           -6.6732     0.6498    -1.4826 H       
  46 H46           -5.0826     0.7392    -2.2760 H       
  47 H47           -5.4634    -3.8033    -0.9358 H       
  48 H48           -6.9737    -3.9425    -0.0041 H       
  49 H49           -6.8343    -3.2731    -2.8713 H       
  50 H50           -7.2349    -4.7631    -2.2507 H       
  51 H51            0.0075    -2.5887     1.1618 H       
  52 H52            1.2887    -4.6972     1.7182 H       
  53 H53            5.4995    -3.8341    -0.0176 H       
  54 H54            6.0632    -4.8861     1.3029 H       
  55 H55            5.5682    -5.5972    -0.2520 H       
@<TRIPOS>BOND
   1    1    2 2
   2    1    5 1
   3    1    6 1
   4    2    3 1
   5    3    4 2
   6    3   24 1
   7    4    5 1
   8    4   32 1
   9    5   33 1
  10    6    7 2
  11    6    8 am
  12    8    9 1
  13    8   34 1
  14    9   10 ar
  15    9   14 ar
  16   10   11 ar
  17   10   16 1
  18   11   12 ar
  19   11   15 1
  20   12   13 ar
  21   12   35 1
  22   13   14 ar
  23   13   36 1
  24   14   37 1
  25   16   17 1
  26   16   21 1
  27   17   18 1
  28   17   38 1
  29   17   39 1
  30   18   19 1
  31   18   40 1
  32   18   41 1
  33   19   20 1
  34   19   22 1
  35   19   42 1
  36   20   21 1
  37   20   43 1
  38   20   44 1
  39   21   45 1
  40   21   46 1
  41   22   23 1
  42   22   47 1
  43   22   48 1
  44   23   49 1
  45   23   50 1
  46   24   25 2
  47   24   28 1
  48   25   26 1
  49   25   51 1
  50   26   27 2
  51   26   52 1
  52   27   28 1
  53   27   29 1
  54   29   30 2
  55   29   31 1
  56   31   53 1
  57   31   54 1
  58   31   55 1

#	End of record

