#	Name: ASD08178158
#	Creating user name:	WinNT
#	Creation time:	15. 06. 2019 21:18

#	Modifying user name:	WinNT
#	Modification time:	15. 06. 2019 21:18

#	Program:	/corina/corina34_cracker 3.40 0067  02.08.2006

@<TRIPOS>MOLECULE
ASD08178158
  34   35    0    0    0
SMALL
NO_CHARGES


@<TRIPOS>ATOM
   1 C1            -0.0155     1.2947     0.0092 C.2     
   2 N2             0.0021    -0.0041     0.0020 N.2     
   3 N3            -1.1080    -0.6053     0.0094 N.2     
   4 C4            -2.1692     0.1372     0.0235 C.2     
   5 S5            -1.6454     1.8216     0.0350 S.3     
   6 C6            -3.5951    -0.3504     0.0340 C.3     
   7 C7            -7.8948    -1.8612     4.9167 C.2     
   8 N8            -8.3886    -0.9315     5.6679 N.2     
   9 N9            -8.5856    -1.1968     6.8848 N.2     
  10 C10           -8.2768    -2.3920     7.3000 C.2     
  11 S11           -7.6517    -3.2942     5.9177 S.3     
  12 N12           -8.4191    -2.8713     8.5937 N.pl3   
  13 N13            1.1034     2.1206     0.0029 N.am    
  14 C14            2.3386     1.5818    -0.0123 C.2     
  15 O15            2.4745     0.3766    -0.0205 O.2     
  16 C16            3.5511     2.4767    -0.0190 C.3     
  17 C17           -4.0644    -0.5229     1.4800 C.3     
  18 S18           -5.7808    -1.1098     1.4927 S.3     
  19 C19           -6.1506    -1.2511     3.2630 C.3     
  20 C20           -7.5875    -1.7438     3.4461 C.3     
  21 H21           -4.2315     0.3769    -0.4702 H       
  22 H22           -3.6557    -1.3073    -0.4843 H       
  23 H23           -8.7789    -2.2963     9.2872 H       
  24 H24           -8.1588    -3.7815     8.8051 H       
  25 H25            0.9948     3.0845     0.0095 H       
  26 H26            3.2332     3.5193    -0.0100 H       
  27 H27            4.1572     2.2740     0.8639 H       
  28 H28            4.1398     2.2842    -0.9160 H       
  29 H29           -3.4280    -1.2502     1.9842 H       
  30 H30           -4.0038     0.4340     1.9984 H       
  31 H31           -5.4621    -1.9601     3.7226 H       
  32 H32           -6.0378    -0.2759     3.7367 H       
  33 H33           -7.7004    -2.7190     2.9723 H       
  34 H34           -8.2761    -1.0348     2.9865 H       
@<TRIPOS>BOND
   1    1    2 2
   2    1   13 1
   3    1    5 1
   4    2    3 1
   5    3    4 2
   6    4    5 1
   7    4    6 1
   8    6   17 1
   9    6   21 1
  10    6   22 1
  11    7    8 2
  12    7   20 1
  13    7   11 1
  14    8    9 1
  15    9   10 2
  16   10   11 1
  17   10   12 1
  18   12   23 1
  19   12   24 1
  20   13   14 am
  21   13   25 1
  22   14   15 2
  23   14   16 1
  24   16   26 1
  25   16   27 1
  26   16   28 1
  27   17   18 1
  28   17   29 1
  29   17   30 1
  30   18   19 1
  31   19   20 1
  32   19   31 1
  33   19   32 1
  34   20   33 1
  35   20   34 1

#	End of record

