#	Name: ASD01100029
#	Creating user name:	WinNT
#	Creation time:	15. 06. 2019 18:58

#	Modifying user name:	WinNT
#	Modification time:	15. 06. 2019 18:58

#	Program:	/corina/corina34_cracker 3.40 0067  02.08.2006

@<TRIPOS>MOLECULE
ASD01100029
  33   34    0    0    0
SMALL
NO_CHARGES


@<TRIPOS>ATOM
   1 C1             0.1626     1.2943    -0.9231 C.ar    
   2 C2             0.2405    -0.0852    -0.9935 C.ar    
   3 C3             1.4415    -0.7235    -0.7399 C.ar    
   4 C4             2.5627     0.0173    -0.4163 C.ar    
   5 C5             2.4841     1.3957    -0.3461 C.ar    
   6 C6             1.2844     2.0340    -0.5994 C.ar    
   7 C7             3.7068     2.2027     0.0072 C.3     
   8 C8             3.4377     3.0046     1.2822 C.3     
   9 C9             3.2221     2.0436     2.4531 C.3     
  10 C10            4.6358     3.9088     1.5784 C.3     
  11 Cl11          -1.1682    -1.0150    -1.3994 Cl      
  12 C12            4.0286     3.1475    -1.1219 C.2     
  13 N13            5.1810     3.8462    -1.1081 N.am    
  14 O14            3.2507     3.2790    -2.0429 O.2     
  15 C15            5.4410     4.7755    -2.1057 C.2     
  16 N16            6.5086     5.5331    -2.2359 N.2     
  17 C17            6.5367     6.3447    -3.2668 C.2     
  18 N18            5.5158     6.3383    -4.0742 N.2     
  19 S19            4.4391     5.1825    -3.4471 S.3     
  20 H20           -0.7736     1.7934    -1.1253 H       
  21 H21            1.5029    -1.8004    -0.7944 H       
  22 H22            3.5002    -0.4809    -0.2180 H       
  23 H23            1.2236     3.1109    -0.5444 H       
  24 H24            4.5501     1.5318     0.1712 H       
  25 H25            2.5459     3.6163     1.1453 H       
  26 H26            4.1139     1.4320     2.5900 H       
  27 H27            3.0304     2.6149     3.3614 H       
  28 H28            2.3686     1.3995     2.2421 H       
  29 H29            4.8523     4.5230     0.7044 H       
  30 H30            4.4040     4.5528     2.4267 H       
  31 H31            5.5047     3.2947     1.8152 H       
  32 H32            5.8287     3.6996    -0.4011 H       
  33 H33            7.3798     6.9972    -3.4395 H       
@<TRIPOS>BOND
   1    1    2 ar
   2    1    6 ar
   3    1   20 1
   4    2    3 ar
   5    2   11 1
   6    3    4 ar
   7    3   21 1
   8    4    5 ar
   9    4   22 1
  10    5    6 ar
  11    5    7 1
  12    6   23 1
  13    7    8 1
  14    7   12 1
  15    7   24 1
  16    8    9 1
  17    8   10 1
  18    8   25 1
  19    9   26 1
  20    9   27 1
  21    9   28 1
  22   10   29 1
  23   10   30 1
  24   10   31 1
  25   12   13 am
  26   12   14 2
  27   13   15 1
  28   13   32 1
  29   15   16 2
  30   15   19 1
  31   16   17 1
  32   17   18 2
  33   17   33 1
  34   18   19 1

#	End of record

