#	Name: ASD03090161
#	Creating user name:	WinNT
#	Creation time:	15. 06. 2019 20:28

#	Modifying user name:	WinNT
#	Modification time:	15. 06. 2019 20:28

#	Program:	/corina/corina34_cracker 3.40 0067  02.08.2006

@<TRIPOS>MOLECULE
ASD03090161
  52   55    0    0    0
SMALL
NO_CHARGES


@<TRIPOS>ATOM
   1 C1            -0.3194     1.0345    -0.7339 C.ar    
   2 C2            -0.1780    -0.1064     0.0448 C.ar    
   3 C3             1.0558    -0.7076     0.1787 C.ar    
   4 C4             2.1675    -0.1694    -0.4699 C.ar    
   5 C5             2.0266     0.9779    -1.2518 C.ar    
   6 C6             0.7866     1.5780    -1.3813 C.ar    
   7 C7             3.4917    -0.8125    -0.3289 C.2     
   8 N8             7.0040    -0.8654    -0.4755 N.pl3   
   9 C9             7.4350     0.3565    -0.9989 C.ar    
  10 C10            6.6546     1.0287    -1.9308 C.ar    
  11 C11            7.0834     2.2364    -2.4457 C.ar    
  12 C12            8.2882     2.7763    -2.0348 C.ar    
  13 C13            9.0680     2.1094    -1.1073 C.ar    
  14 C14            8.6424     0.9046    -0.5839 C.ar    
  15 N15            4.6586    -0.2448    -0.5619 N.2     
  16 C16            5.6387    -1.1206    -0.3317 C.2     
  17 N17            5.1130    -2.2608     0.0518 N.2     
  18 N18            3.7199    -2.0850     0.0674 N.pl3   
  19 C19            2.7130    -3.0850     0.4314 C.3     
  20 C20            2.4650    -3.0305     1.9168 C.2     
  21 N21            1.5711    -3.8661     2.4819 N.am    
  22 O22            3.0698    -2.2348     2.6038 O.2     
  23 C23            1.3300    -3.8131     3.9260 C.3     
  24 C24            0.8405    -4.8272     1.6521 C.3     
  25 O25            0.6663     2.7010    -2.1413 O.3     
  26 C26           -0.6570     3.0618    -2.5517 C.3     
  27 C27           -1.5834     2.9574    -1.3327 C.3     
  28 O28           -1.5480     1.6064    -0.8586 O.3     
  29 C29           10.3809     2.7011    -0.6632 C.3     
  30 F30           10.5912     3.9169    -1.3226 F       
  31 F31           10.3506     2.9191     0.7184 F       
  32 F32           11.4196     1.8167    -0.9731 F       
  33 H33           -1.0375    -0.5243     0.5477 H       
  34 H34            1.1614    -1.5946     0.7858 H       
  35 H35            2.8851     1.3974    -1.7553 H       
  36 H36            7.6532    -1.5363    -0.2122 H       
  37 H37            5.7137     0.6072    -2.2527 H       
  38 H38            6.4771     2.7596    -3.1703 H       
  39 H39            8.6213     3.7206    -2.4393 H       
  40 H40            9.2518     0.3844     0.1403 H       
  41 H41            1.7845    -2.8757    -0.0999 H       
  42 H42            3.0716    -4.0776     0.1590 H       
  43 H43            0.5271    -3.1061     4.1346 H       
  44 H44            1.0448    -4.8026     4.2832 H       
  45 H45            2.2388    -3.4913     4.4345 H       
  46 H46            1.4025    -5.7595     1.5957 H       
  47 H47           -0.1376    -5.0187     2.0934 H       
  48 H48            0.7131    -4.4187     0.6496 H       
  49 H49           -0.6589     4.0847    -2.9284 H       
  50 H50           -0.9981     2.3815    -3.3320 H       
  51 H51           -1.2382     3.6326    -0.5498 H       
  52 H52           -2.6015     3.2184    -1.6214 H       
@<TRIPOS>BOND
   1    1    2 ar
   2    1    6 ar
   3    1   28 1
   4    2    3 ar
   5    2   33 1
   6    3    4 ar
   7    3   34 1
   8    4    5 ar
   9    4    7 1
  10    5    6 ar
  11    5   35 1
  12    6   25 1
  13    7   15 2
  14    7   18 1
  15    8    9 1
  16    8   16 1
  17    8   36 1
  18    9   10 ar
  19    9   14 ar
  20   10   11 ar
  21   10   37 1
  22   11   12 ar
  23   11   38 1
  24   12   13 ar
  25   12   39 1
  26   13   14 ar
  27   13   29 1
  28   14   40 1
  29   15   16 1
  30   16   17 2
  31   17   18 1
  32   18   19 1
  33   19   20 1
  34   19   41 1
  35   19   42 1
  36   20   21 am
  37   20   22 2
  38   21   23 1
  39   21   24 1
  40   23   43 1
  41   23   44 1
  42   23   45 1
  43   24   46 1
  44   24   47 1
  45   24   48 1
  46   25   26 1
  47   26   27 1
  48   26   49 1
  49   26   50 1
  50   27   28 1
  51   27   51 1
  52   27   52 1
  53   29   30 1
  54   29   31 1
  55   29   32 1

#	End of record

