#	Name: ASD09080090
#	Creating user name:	WinNT
#	Creation time:	15. 06. 2019 21:20

#	Modifying user name:	WinNT
#	Modification time:	15. 06. 2019 21:20

#	Program:	/corina/corina34_cracker 3.40 0067  02.08.2006

@<TRIPOS>MOLECULE
ASD09080090
  51   52    0    0    0
SMALL
NO_CHARGES


@<TRIPOS>ATOM
   1 C1            -0.0167     1.3799     0.0096 C.ar    
   2 C2             0.0021    -0.0041     0.0020 C.ar    
   3 C3             1.2064    -0.6807    -0.0127 C.ar    
   4 C4             2.4033     0.0323    -0.0204 C.ar    
   5 C5             2.3792     1.4253    -0.0131 C.ar    
   6 C6             1.1698     2.0928     0.0021 C.ar    
   7 C7             3.6997    -0.6897    -0.0357 C.ar    
   8 C8             4.8969     0.0231    -0.0433 C.ar    
   9 C9             3.7243    -2.0828    -0.0367 C.ar    
  10 C10            4.9328    -2.7491    -0.0510 C.ar    
  11 C11            6.1183    -2.0365    -0.0639 C.ar    
  12 C12            6.0998    -0.6534    -0.0576 C.ar    
  13 Cl13           1.1380     3.8285     0.0112 Cl      
  14 Cl14          -1.4902    -0.8910     0.0116 Cl      
  15 C15            7.4348    -2.7697    -0.0790 C.3     
  16 C16            7.8643    -3.0170    -1.5265 C.3     
  17 C17            9.1161    -3.8559    -1.5428 C.2     
  18 O18           10.1245    -3.4264    -2.0512 O.2     
  19 O19            9.1108    -5.0801    -0.9924 O.3     
  20 C20           10.3521    -5.8317    -1.0445 C.3     
  21 N21            8.1273    -1.7344    -2.1838 N.am    
  22 O22            8.2666    -0.4515    -4.1277 O.3     
  23 C23            8.1371    -0.4129    -5.5734 C.3     
  24 C24            6.7081    -0.7915    -5.9678 C.3     
  25 C25            8.4479     0.9985    -6.0757 C.3     
  26 C26            9.1190    -1.4050    -6.2000 C.3     
  27 C27            8.0248    -1.6303    -3.5236 C.2     
  28 O28            7.7141    -2.6001    -4.1864 O.2     
  29 H29           -0.9602     1.9054     0.0170 H       
  30 H30            1.2200    -1.7606    -0.0179 H       
  31 H31            3.3044     1.9823    -0.0186 H       
  32 H32            4.8836     1.1031    -0.0384 H       
  33 H33            2.7993    -2.6402    -0.0260 H       
  34 H34            4.9530    -3.8290    -0.0518 H       
  35 H35            7.0284    -0.1019    -0.0677 H       
  36 H36            8.1909    -2.1692     0.4267 H       
  37 H37            7.3250    -3.7243     0.4356 H       
  38 H38            7.0690    -3.5407    -2.0570 H       
  39 H39           11.1334    -5.2793    -0.5225 H       
  40 H40           10.2105    -6.8007    -0.5659 H       
  41 H41           10.6441    -5.9792    -2.0842 H       
  42 H42            8.3753    -0.9602    -1.6547 H       
  43 H43            6.0087    -0.0847    -5.5214 H       
  44 H44            6.6110    -0.7625    -7.0530 H       
  45 H45            6.4867    -1.7970    -5.6099 H       
  46 H46            9.4659     1.2682    -5.7947 H       
  47 H47            8.3508     1.0275    -7.1610 H       
  48 H48            7.7484     1.7053    -5.6293 H       
  49 H49            8.8976    -2.4105    -5.8421 H       
  50 H50            9.0218    -1.3760    -7.2853 H       
  51 H51           10.1370    -1.1353    -5.9190 H       
@<TRIPOS>BOND
   1    1    2 ar
   2    1    6 ar
   3    1   29 1
   4    2    3 ar
   5    2   14 1
   6    3    4 ar
   7    3   30 1
   8    4    5 ar
   9    4    7 1
  10    5    6 ar
  11    5   31 1
  12    6   13 1
  13    7    8 ar
  14    7    9 ar
  15    8   12 ar
  16    8   32 1
  17    9   10 ar
  18    9   33 1
  19   10   11 ar
  20   10   34 1
  21   11   12 ar
  22   11   15 1
  23   12   35 1
  24   15   16 1
  25   15   36 1
  26   15   37 1
  27   16   17 1
  28   16   21 1
  29   16   38 1
  30   17   18 2
  31   17   19 1
  32   19   20 1
  33   20   39 1
  34   20   40 1
  35   20   41 1
  36   21   27 am
  37   21   42 1
  38   22   23 1
  39   22   27 1
  40   23   24 1
  41   23   25 1
  42   23   26 1
  43   24   43 1
  44   24   44 1
  45   24   45 1
  46   25   46 1
  47   25   47 1
  48   25   48 1
  49   26   49 1
  50   26   50 1
  51   26   51 1
  52   27   28 2

#	End of record

