#	Name: ASD01882250
#	Creating user name:	WinNT
#	Creation time:	15. 06. 2019 19:44

#	Modifying user name:	WinNT
#	Modification time:	15. 06. 2019 19:44

#	Program:	/corina/corina34_cracker 3.40 0067  02.08.2006

@<TRIPOS>MOLECULE
ASD01882250
  46   49    0    0    0
SMALL
NO_CHARGES


@<TRIPOS>ATOM
   1 C1            -0.7423    -0.0688     1.1692 C.2     
   2 C2             0.0021    -0.0041     0.0020 C.2     
   3 C3            -0.4484     0.7159    -1.1283 C.2     
   4 C4            -1.7409     1.1301    -1.2078 C.2     
   5 N5            -2.5463     0.7839    -0.1551 N.pl3   
   6 C6            -2.0452     0.6892     1.2305 C.3     
   7 C7            -3.8764     0.3974    -0.1220 C.2     
   8 C8            -4.1854    -0.1043     1.0623 C.2     
   9 N9            -3.0938    -0.0621     1.9259 N.pl3   
  10 C10           -4.8377     0.5306    -1.2749 C.3     
  11 N11            1.2173    -0.6603    -0.0584 N.pl3   
  12 C12            1.2895    -2.1260     0.0412 C.3     
  13 C13            2.1197    -2.6534    -1.1339 C.3     
  14 N14            3.4186    -1.9677    -1.1585 N.3     
  15 C15            3.2559    -0.5261    -1.3887 C.3     
  16 C16            2.4717     0.0881    -0.2302 C.3     
  17 C17            4.2582    -2.5295    -2.1046 C.ar    
  18 N18            5.4765    -2.0336    -2.2640 N.ar    
  19 C19            6.3037    -2.5472    -3.1593 C.ar    
  20 C20            5.8822    -3.6159    -3.9347 C.ar    
  21 C21            4.6016    -4.1099    -3.7420 C.ar    
  22 N22            3.8265    -3.5537    -2.8257 N.ar    
  23 C23           -5.4411     1.9366    -1.2760 C.3     
  24 F24           -4.4191     2.8826    -1.4093 F       
  25 F25           -6.3335     2.0602    -2.3463 F       
  26 F26           -6.1225     2.1526    -0.0734 F       
  27 C27           -0.2891    -0.8408     2.2868 C.1     
  28 N28            0.0705    -1.4532     3.1735 N.1     
  29 H29            0.2376     0.9382    -1.9324 H       
  30 H30           -2.1100     1.6977    -2.0492 H       
  31 H31           -1.8975     1.6771     1.6667 H       
  32 H32           -5.1567    -0.4968     1.3249 H       
  33 H33           -3.0377    -0.4519     2.8124 H       
  34 H34           -4.3068     0.3623    -2.2119 H       
  35 H35           -5.6340    -0.2064    -1.1711 H       
  36 H36            1.7657    -2.4061     0.9808 H       
  37 H37            0.2846    -2.5459    -0.0028 H       
  38 H38            2.2766    -3.7256    -1.0162 H       
  39 H39            1.5903    -2.4633    -2.0676 H       
  40 H40            4.2367    -0.0554    -1.4557 H       
  41 H41            2.7107    -0.3655    -2.3188 H       
  42 H42            2.2497     1.1322    -0.4511 H       
  43 H43            3.0591     0.0216     0.6856 H       
  44 H44            7.2955    -2.1385    -3.2848 H       
  45 H45            6.5372    -4.0540    -4.6732 H       
  46 H46            4.2423    -4.9415    -4.3300 H       
@<TRIPOS>BOND
   1    1    2 2
   2    1   27 1
   3    1    6 1
   4    2    3 1
   5    2   11 1
   6    3    4 2
   7    3   29 1
   8    4    5 1
   9    4   30 1
  10    5    6 1
  11    5    7 1
  12    6    9 1
  13    6   31 1
  14    7    8 2
  15    7   10 1
  16    8    9 1
  17    8   32 1
  18    9   33 1
  19   10   23 1
  20   10   34 1
  21   10   35 1
  22   11   12 1
  23   11   16 1
  24   12   13 1
  25   12   36 1
  26   12   37 1
  27   13   14 1
  28   13   38 1
  29   13   39 1
  30   14   15 1
  31   14   17 1
  32   15   16 1
  33   15   40 1
  34   15   41 1
  35   16   42 1
  36   16   43 1
  37   17   18 ar
  38   17   22 ar
  39   18   19 ar
  40   19   20 ar
  41   19   44 1
  42   20   21 ar
  43   20   45 1
  44   21   22 ar
  45   21   46 1
  46   23   24 1
  47   23   25 1
  48   23   26 1
  49   27   28 3

#	End of record

