#	Name: ASD03240275
#	Creating user name:	WinNT
#	Creation time:	15. 06. 2019 20:34

#	Modifying user name:	WinNT
#	Modification time:	15. 06. 2019 20:34

#	Program:	/corina/corina34_cracker 3.40 0067  02.08.2006

@<TRIPOS>MOLECULE
ASD03240275
  91   96    0    0    0
SMALL
NO_CHARGES


@<TRIPOS>ATOM
   1 C1            -0.0178     1.3677     0.0641 C.2     
   2 N2             0.0004    -0.0070     0.0590 N.pl3   
   3 C3            -2.6860     3.9948     0.0984 C.3     
   4 C4            -1.2369     3.5040     0.0831 C.3     
   5 N5            -1.2174     2.0392     0.0777 N.pl3   
   6 N6             1.1022     2.0343     0.0614 N.2     
   7 N7            -2.7054     5.4597     0.1039 N.pl3   
   8 C8            -3.9171     6.1379     0.1176 C.ar    
   9 C9            -3.9356     7.5410     0.1228 C.ar    
  10 C10           -5.1491     8.2152     0.1361 C.ar    
  11 C11           -6.3437     7.4931     0.1442 C.ar    
  12 C12           -6.3154     6.0948     0.1390 C.ar    
  13 C13           -5.1117     5.4267     0.1204 C.ar    
  14 C14           -7.6359     8.2048     0.1589 C.2     
  15 N15           -8.7892     7.5076     0.1667 N.am    
  16 O16           -7.6603     9.4207     0.1638 O.2     
  17 C17          -10.0124     8.1784     0.2935 C.ar    
  18 C18          -11.1361     7.7050    -0.3710 C.ar    
  19 C19          -10.1025     9.3136     1.0884 C.ar    
  20 C20          -11.3081     9.9746     1.2138 C.ar    
  21 C21          -12.4307     9.5044     0.5447 C.ar    
  22 C22          -12.3417     8.3661    -0.2460 C.ar    
  23 N23          -13.6525    10.1739     0.6721 N.pl3   
  24 C24          -14.8366     9.6779    -0.0337 C.3     
  25 C25          -13.7478    11.3709     1.5113 C.3     
  26 C26           -2.6630     8.3012     0.1146 C.ar    
  27 C27           -2.4703     9.3288    -0.8087 C.ar    
  28 C28           -1.2880    10.0354    -0.8159 C.ar    
  29 C29           -0.2834     9.7231     0.0996 C.ar    
  30 C30           -0.4757     8.6955     1.0225 C.ar    
  31 C31           -1.6604     7.9928     1.0340 C.ar    
  32 C32          -13.4528    12.5924     0.6795 C.ar    
  33 C33          -15.5703     8.6968     0.8439 C.ar    
  34 C34          -14.4832    13.2476     0.0287 C.ar    
  35 C35          -14.2203    14.3665    -0.7341 C.ar    
  36 C36          -12.9109    14.8377    -0.8484 C.ar    
  37 C37          -11.8759    14.1716    -0.1889 C.ar    
  38 C38          -12.1537    13.0569     0.5747 C.ar    
  39 C39          -16.5557     9.1462     1.7049 C.ar    
  40 C40          -17.2316     8.2535     2.5107 C.ar    
  41 C41          -16.9192     6.8937     2.4560 C.ar    
  42 C42          -15.9236     6.4471     1.5847 C.ar    
  43 C43          -15.2593     7.3501     0.7808 C.ar    
  44 C44            0.9898    10.4837     0.0915 C.ar    
  45 C45            1.9956    10.1739     1.0053 C.ar    
  46 C46            3.1783    10.8850     0.9931 C.ar    
  47 C47            3.3663    11.9039     0.0765 C.ar    
  48 C48            2.3714    12.2161    -0.8324 C.ar    
  49 C49            1.1873    11.5072    -0.8338 C.ar    
  50 C50          -17.6163     5.9614     3.2899 C.1     
  51 N51          -18.1694     5.2219     3.9514 N.1     
  52 C52          -12.6306    15.9984    -1.6389 C.1     
  53 N53          -12.4082    16.9192    -2.2659 N.1     
  54 H54            0.8468    -0.4808     0.0534 H       
  55 H55           -0.8331    -0.5032     0.0610 H       
  56 H56           -3.2032     3.6278    -0.7881 H       
  57 H57           -3.1866     3.6215     0.9918 H       
  58 H58           -0.7363     3.8774    -0.8102 H       
  59 H59           -0.7196     3.8710     0.9696 H       
  60 H60           -2.0509     1.5431     0.0837 H       
  61 H61            1.0893     3.0042     0.0650 H       
  62 H62           -1.8719     5.9558     0.0978 H       
  63 H63           -5.1688     9.2950     0.1405 H       
  64 H64           -7.2405     5.5375     0.1456 H       
  65 H65           -5.0954     4.3468     0.1164 H       
  66 H66           -8.7723     6.5412     0.0845 H       
  67 H67          -11.0668     6.8198    -0.9859 H       
  68 H68           -9.2296     9.6791     1.6087 H       
  69 H69          -11.3783    10.8570     1.8326 H       
  70 H70          -13.2145     8.0004    -0.7664 H       
  71 H71          -15.4939    10.5140    -0.2725 H       
  72 H72          -14.5296     9.1825    -0.9548 H       
  73 H73          -14.7540    11.4464     1.9236 H       
  74 H74          -13.0259    11.3025     2.3251 H       
  75 H75           -3.2480     9.5701    -1.5182 H       
  76 H76           -1.1387    10.8310    -1.5308 H       
  77 H77            0.3025     8.4536     1.7313 H       
  78 H78           -1.8095     7.1972     1.7490 H       
  79 H79          -15.4955    12.8819     0.1177 H       
  80 H80          -15.0254    14.8768    -1.2419 H       
  81 H81          -10.8608    14.5305    -0.2735 H       
  82 H82          -11.3542    12.5407     1.0854 H       
  83 H83          -16.7961    10.1983     1.7465 H       
  84 H84          -18.0003     8.6057     3.1826 H       
  85 H85          -15.6767     5.3968     1.5377 H       
  86 H86          -14.4890     7.0061     0.1064 H       
  87 H87            1.8496     9.3791     1.7218 H       
  88 H88            3.9583    10.6458     1.7007 H       
  89 H89            4.2933    12.4580     0.0708 H       
  90 H90            2.5235    13.0128    -1.5455 H       
  91 H91            0.4112    11.7518    -1.5439 H       
@<TRIPOS>BOND
   1    1    2 1
   2    1    6 2
   3    1    5 1
   4    2   54 1
   5    2   55 1
   6    3    4 1
   7    3    7 1
   8    3   56 1
   9    3   57 1
  10    4    5 1
  11    4   58 1
  12    4   59 1
  13    5   60 1
  14    6   61 1
  15    7    8 1
  16    7   62 1
  17    8    9 ar
  18    8   13 ar
  19    9   10 ar
  20    9   26 1
  21   10   11 ar
  22   10   63 1
  23   11   12 ar
  24   11   14 1
  25   12   13 ar
  26   12   64 1
  27   13   65 1
  28   14   15 am
  29   14   16 2
  30   15   17 1
  31   15   66 1
  32   17   18 ar
  33   17   19 ar
  34   18   22 ar
  35   18   67 1
  36   19   20 ar
  37   19   68 1
  38   20   21 ar
  39   20   69 1
  40   21   22 ar
  41   21   23 1
  42   22   70 1
  43   23   24 1
  44   23   25 1
  45   24   33 1
  46   24   71 1
  47   24   72 1
  48   25   32 1
  49   25   73 1
  50   25   74 1
  51   26   27 ar
  52   26   31 ar
  53   27   28 ar
  54   27   75 1
  55   28   29 ar
  56   28   76 1
  57   29   30 ar
  58   29   44 1
  59   30   31 ar
  60   30   77 1
  61   31   78 1
  62   32   34 ar
  63   32   38 ar
  64   33   39 ar
  65   33   43 ar
  66   34   35 ar
  67   34   79 1
  68   35   36 ar
  69   35   80 1
  70   36   37 ar
  71   36   52 1
  72   37   38 ar
  73   37   81 1
  74   38   82 1
  75   39   40 ar
  76   39   83 1
  77   40   41 ar
  78   40   84 1
  79   41   42 ar
  80   41   50 1
  81   42   43 ar
  82   42   85 1
  83   43   86 1
  84   44   45 ar
  85   44   49 ar
  86   45   46 ar
  87   45   87 1
  88   46   47 ar
  89   46   88 1
  90   47   48 ar
  91   47   89 1
  92   48   49 ar
  93   48   90 1
  94   49   91 1
  95   50   51 3
  96   52   53 3

#	End of record

