#	Name: ASD01811482
#	Creating user name:	WinNT
#	Creation time:	15. 06. 2019 19:26

#	Modifying user name:	WinNT
#	Modification time:	15. 06. 2019 19:26

#	Program:	/corina/corina34_cracker 3.40 0067  02.08.2006

@<TRIPOS>MOLECULE
ASD01811482
  65   70    0    0    0
SMALL
NO_CHARGES


@<TRIPOS>ATOM
   1 C1             5.9699    12.8084    -2.2384 C.1     
   2 C2             4.8900    11.9635    -1.8255 C.ar    
   3 C3             5.1374    10.6405    -1.4536 C.ar    
   4 C4             4.0924     9.8320    -1.0570 C.ar    
   5 C5             2.8015    10.3292    -1.0274 C.ar    
   6 C6             2.5492    11.6390    -1.3950 C.ar    
   7 C7             3.5857    12.4605    -1.7873 C.ar    
   8 N8             6.8266    13.4787    -2.5659 N.1     
   9 N9            -1.0519     8.8821    -0.0389 N.am    
  10 C10           -0.1485     9.1221     1.0947 C.3     
  11 C11            0.9839    10.0461     0.6357 C.3     
  12 C12            1.6650     9.4398    -0.5934 C.3     
  13 C13            0.6503     9.3168    -1.7324 C.3     
  14 C14           -0.4859     8.3846    -1.3002 C.3     
  15 C15           -2.3754     9.1085     0.0778 C.2     
  16 C16           -2.9494     9.4780     1.3895 C.ar    
  17 C17           -3.9242    10.4706     1.4706 C.ar    
  18 C18           -4.4599    10.8121     2.7098 C.ar    
  19 C19           -4.0179    10.1590     3.8623 C.ar    
  20 C20           -3.0515     9.1768     3.7753 C.ar    
  21 C21           -2.5201     8.8291     2.5490 C.ar    
  22 O22           -3.0971     9.0091    -0.8951 O.2     
  23 C23           -5.4948    11.8649     2.8053 C.2     
  24 N24           -6.0104    12.5768     1.7576 N.pl3   
  25 C25           -6.9264    13.4342     2.2783 C.2     
  26 C26           -6.9531    13.2299     3.6184 C.2     
  27 N27           -6.0802    12.2719     3.9135 N.2     
  28 C28           -7.7900    14.4511     1.5778 C.3     
  29 C29           -7.8623    14.0045     4.5423 C.3     
  30 C30           -8.9374    14.6823     3.6805 C.3     
  31 O31           -8.3211    15.3400     2.5705 O.3     
  32 C32           -8.5226    13.0506     5.5397 C.3     
  33 C33           -4.5966    10.5274     5.2041 C.3     
  34 C34           -5.3084     9.4264     5.9929 C.3     
  35 C35           -3.9361     9.9278     6.4471 C.3     
  36 H36            6.1444    10.2510    -1.4769 H       
  37 H37            4.2823     8.8085    -0.7691 H       
  38 H38            1.5392    12.0206    -1.3700 H       
  39 H39            3.3881    13.4841    -2.0693 H       
  40 H40           -0.6997     9.5955     1.9073 H       
  41 H41            0.2686     8.1749     1.4365 H       
  42 H42            0.5749    11.0235     0.3799 H       
  43 H43            1.7127    10.1550     1.4388 H       
  44 H44            2.0520     8.4518    -0.3438 H       
  45 H45            0.2444    10.3011    -1.9659 H       
  46 H46            1.1416     8.9067    -2.6147 H       
  47 H47           -0.0964     7.3772    -1.1537 H       
  48 H48           -1.2597     8.3713    -2.0678 H       
  49 H49           -4.2625    10.9729     0.5764 H       
  50 H50           -2.7126     8.6752     4.6697 H       
  51 H51           -1.7676     8.0568     2.4872 H       
  52 H52           -5.7682    12.4872     0.8226 H       
  53 H53           -7.1901    15.0137     0.8624 H       
  54 H54           -8.6060    13.9472     1.0598 H       
  55 H55           -7.2876    14.7602     5.0778 H       
  56 H56           -9.6359    13.9300     3.3140 H       
  57 H57           -9.4763    15.4142     4.2822 H       
  58 H58           -7.7533    12.5499     6.1276 H       
  59 H59           -9.1773    13.6151     6.2036 H       
  60 H60           -9.1077    12.3070     4.9985 H       
  61 H61           -4.9929    11.5397     5.2832 H       
  62 H62           -6.1728     9.7145     6.5912 H       
  63 H63           -5.3581     8.4356     5.5413 H       
  64 H64           -3.0829     9.2668     6.2943 H       
  65 H65           -3.8976    10.5456     7.3442 H       
@<TRIPOS>BOND
   1    1    2 1
   2    1    8 3
   3    2    3 ar
   4    2    7 ar
   5    3    4 ar
   6    3   36 1
   7    4    5 ar
   8    4   37 1
   9    5    6 ar
  10    5   12 1
  11    6    7 ar
  12    6   38 1
  13    7   39 1
  14    9   10 1
  15    9   14 1
  16    9   15 am
  17   10   11 1
  18   10   40 1
  19   10   41 1
  20   11   12 1
  21   11   42 1
  22   11   43 1
  23   12   13 1
  24   12   44 1
  25   13   14 1
  26   13   45 1
  27   13   46 1
  28   14   47 1
  29   14   48 1
  30   15   16 1
  31   15   22 2
  32   16   17 ar
  33   16   21 ar
  34   17   18 ar
  35   17   49 1
  36   18   19 ar
  37   18   23 1
  38   19   20 ar
  39   19   33 1
  40   20   21 ar
  41   20   50 1
  42   21   51 1
  43   23   24 1
  44   23   27 2
  45   24   25 1
  46   24   52 1
  47   25   26 2
  48   25   28 1
  49   26   27 1
  50   26   29 1
  51   28   31 1
  52   28   53 1
  53   28   54 1
  54   29   30 1
  55   29   32 1
  56   29   55 1
  57   30   31 1
  58   30   56 1
  59   30   57 1
  60   32   58 1
  61   32   59 1
  62   32   60 1
  63   33   34 1
  64   33   35 1
  65   33   61 1
  66   34   35 1
  67   34   62 1
  68   34   63 1
  69   35   64 1
  70   35   65 1

#	End of record

