#	Name: ASD00990091
#	Creating user name:	WinNT
#	Creation time:	15. 06. 2019 18:54

#	Modifying user name:	WinNT
#	Modification time:	15. 06. 2019 18:54

#	Program:	/corina/corina34_cracker 3.40 0067  02.08.2006

@<TRIPOS>MOLECULE
ASD00990091
  43   46    0    0    0
SMALL
NO_CHARGES


@<TRIPOS>ATOM
   1 C1            -0.0164     1.3593     0.0095 C.ar    
   2 C2             0.0021    -0.0041     0.0020 C.ar    
   3 C3             1.2274    -0.6891    -0.0133 C.ar    
   4 C4             2.4286     0.0448    -0.0209 C.ar    
   5 C5             2.3864     1.4355    -0.0130 C.ar    
   6 C6             1.1699     2.0846     0.0021 C.ar    
   7 N7             3.6408    -0.6157    -0.0355 N.am    
   8 C8             4.8979     0.1364    -0.0431 C.3     
   9 C9             5.3421     0.3867     1.3751 C.2     
  10 N10            6.4814     1.0656     1.6145 N.am    
  11 C11            6.9132     1.3090     2.9931 C.3     
  12 O12            4.6742    -0.0229     2.3009 O.2     
  13 C13            7.2882     1.5603     0.4961 C.3     
  14 C14            7.7906     0.1731     3.4526 C.2     
  15 N15            9.1504     0.1683     3.4011 N.pl3   
  16 C16            9.5765    -1.0425     3.9110 C.ar    
  17 C17            8.4125    -1.7458     4.2628 C.ar    
  18 N18            7.3587    -0.9435     3.9615 N.2     
  19 C19           10.8230    -1.6191     4.1131 C.ar    
  20 C20           10.9142    -2.8829     4.6597 C.ar    
  21 C21            9.7643    -3.5832     5.0091 C.ar    
  22 C22            8.5210    -3.0251     4.8154 C.ar    
  23 Cl23           9.8982    -5.1724     5.6949 Cl      
  24 Cl24           1.1192     3.8198     0.0113 Cl      
  25 N25            1.2479    -2.0354    -0.0202 N.2     
  26 C26            2.3736    -2.6903    -0.0345 C.2     
  27 C27            3.6493    -1.9667    -0.0424 C.2     
  28 O28            4.7034    -2.5763    -0.0558 O.2     
  29 F29           12.1276    -3.4436     4.8562 F       
  30 H30           -0.9620     1.8812     0.0168 H       
  31 H31           -0.9257    -0.5568     0.0082 H       
  32 H32            3.3040     2.0050    -0.0183 H       
  33 H33            5.6618    -0.4381    -0.5670 H       
  34 H34            4.7481     1.0894    -0.5505 H       
  35 H35            7.4739     2.2426     3.0388 H       
  36 H36            6.0392     1.3779     3.6408 H       
  37 H37            6.9607     2.5649     0.2283 H       
  38 H38            8.3378     1.5863     0.7888 H       
  39 H39            7.1662     0.8979    -0.3608 H       
  40 H40            9.7156     0.8826     3.0676 H       
  41 H41           11.7191    -1.0801     3.8430 H       
  42 H42            7.6322    -3.5743     5.0885 H       
  43 H43            2.3677    -3.7702    -0.0395 H       
@<TRIPOS>BOND
   1    1    2 ar
   2    1    6 ar
   3    1   30 1
   4    2    3 ar
   5    2   31 1
   6    3    4 ar
   7    3   25 1
   8    4    5 ar
   9    4    7 1
  10    5    6 ar
  11    5   32 1
  12    6   24 1
  13    7    8 1
  14    7   27 am
  15    8    9 1
  16    8   33 1
  17    8   34 1
  18    9   10 am
  19    9   12 2
  20   10   11 1
  21   10   13 1
  22   11   14 1
  23   11   35 1
  24   11   36 1
  25   13   37 1
  26   13   38 1
  27   13   39 1
  28   14   15 1
  29   14   18 2
  30   15   16 1
  31   15   40 1
  32   16   17 ar
  33   16   19 ar
  34   17   18 1
  35   17   22 ar
  36   19   20 ar
  37   19   41 1
  38   20   21 ar
  39   20   29 1
  40   21   22 ar
  41   21   23 1
  42   22   42 1
  43   25   26 2
  44   26   27 1
  45   26   43 1
  46   27   28 2

#	End of record

