#	Name: ASD05170044
#	Creating user name:	WinNT
#	Creation time:	15. 06. 2019 20:57

#	Modifying user name:	WinNT
#	Modification time:	15. 06. 2019 20:57

#	Program:	/corina/corina34_cracker 3.40 0067  02.08.2006

@<TRIPOS>MOLECULE
ASD05170044
  47   51    0    0    0
SMALL
NO_CHARGES


@<TRIPOS>ATOM
   1 C1            -0.0173     1.4248     0.0099 C.3     
   2 O2             0.0021    -0.0041     0.0020 O.3     
   3 C3             0.6734    -0.5824     1.1231 C.3     
   4 N4             0.6344    -2.0429     1.0155 N.pl3   
   5 C5             0.0520    -2.7138    -0.0011 C.2     
   6 C6             0.2217    -4.0405     0.2502 C.2     
   7 C7             0.9604    -4.0952     1.5121 C.2     
   8 N8             1.1549    -2.8446     1.8738 N.2     
   9 C9             1.3956    -5.3104     2.2159 C.2     
  10 O10            2.4604    -5.3113     2.8029 O.2     
  11 N11            0.6393    -6.4175     2.2227 N.am    
  12 C12            1.1348    -7.6059     2.9215 C.3     
  13 C13           -0.6590    -6.4824     1.5602 C.3     
  14 C14           -1.7190    -7.3985     2.1837 C.3     
  15 C15           -1.8554    -5.8803     2.3083 C.3     
  16 C16           -0.6623    -6.3569     0.0599 C.ar    
  17 C17           -1.0980    -7.4242    -0.7059 C.ar    
  18 C18           -1.1046    -7.3398    -2.0836 C.ar    
  19 C19           -0.6707    -6.1758    -2.7158 C.ar    
  20 C20           -0.2345    -5.0977    -1.9525 C.ar    
  21 C21           -0.2333    -5.1877    -0.5632 C.ar    
  22 C22           -0.6734    -6.0872    -4.1972 C.ar    
  23 C23           -1.1151    -7.1640    -4.9716 C.ar    
  24 C24           -1.0990    -7.0328    -6.3486 C.ar    
  25 C25           -0.6495    -5.8485    -6.9112 C.ar    
  26 F26           -0.6316    -5.7148    -8.2554 F       
  27 N27           -0.2388    -4.8485    -6.1522 N.ar    
  28 C28           -0.2415    -4.9281    -4.8369 C.ar    
  29 H29            1.0053     1.8021     0.0021 H       
  30 H30           -0.5445     1.7859    -0.8732 H       
  31 H31           -0.5275     1.7763     0.9067 H       
  32 H32            1.7103    -0.2468     1.1385 H       
  33 H33            0.1775    -0.2725     2.0430 H       
  34 H34           -0.4528    -2.2801    -0.8516 H       
  35 H35            2.1100    -7.3905     3.3582 H       
  36 H36            0.4357    -7.8809     3.7113 H       
  37 H37            1.2274    -8.4307     2.2149 H       
  38 H38           -2.4021    -7.9111     1.5065 H       
  39 H39           -1.4401    -7.9537     3.0793 H       
  40 H40           -1.6661    -5.4366     3.2857 H       
  41 H41           -2.6282    -5.3940     1.7129 H       
  42 H42           -1.4348    -8.3293    -0.2223 H       
  43 H43           -1.4465    -8.1777    -2.6730 H       
  44 H44            0.1026    -4.1929    -2.4364 H       
  45 H45           -1.4599    -8.0756    -4.5065 H       
  46 H46           -1.4327    -7.8443    -6.9783 H       
  47 H47            0.0979    -4.0878    -4.2495 H       
@<TRIPOS>BOND
   1    1    2 1
   2    1   29 1
   3    1   30 1
   4    1   31 1
   5    2    3 1
   6    3    4 1
   7    3   32 1
   8    3   33 1
   9    4    8 1
  10    4    5 1
  11    5    6 2
  12    5   34 1
  13    6   21 1
  14    6    7 1
  15    7    8 2
  16    7    9 1
  17    9   10 2
  18    9   11 am
  19   11   12 1
  20   11   13 1
  21   12   35 1
  22   12   36 1
  23   12   37 1
  24   13   15 1
  25   13   14 1
  26   13   16 1
  27   14   15 1
  28   14   38 1
  29   14   39 1
  30   15   40 1
  31   15   41 1
  32   16   21 ar
  33   16   17 ar
  34   17   18 ar
  35   17   42 1
  36   18   19 ar
  37   18   43 1
  38   19   20 ar
  39   19   22 1
  40   20   21 ar
  41   20   44 1
  42   22   28 ar
  43   22   23 ar
  44   23   24 ar
  45   23   45 1
  46   24   25 ar
  47   24   46 1
  48   25   26 1
  49   25   27 ar
  50   27   28 ar
  51   28   47 1

#	End of record

