#	Name: ASD03430190
#	Creating user name:	WinNT
#	Creation time:	15. 06. 2019 20:40

#	Modifying user name:	WinNT
#	Modification time:	15. 06. 2019 20:40

#	Program:	/corina/corina34_cracker 3.40 0067  02.08.2006

@<TRIPOS>MOLECULE
ASD03430190
  67   73    0    0    0
SMALL
NO_CHARGES


@<TRIPOS>ATOM
   1 C1            -0.7457    -1.3464     5.2555 C.ar    
   2 C2            -0.6339    -2.3134     4.2806 C.ar    
   3 C3             0.5389    -3.0263     4.1453 C.ar    
   4 C4             1.6142    -2.7824     4.9957 C.ar    
   5 C5             1.4970    -1.7980     5.9693 C.ar    
   6 C6             0.3200    -1.0716     6.1043 C.ar    
   7 O7             2.6596    -3.6131     4.7194 O.3     
   8 C8             0.9795    -4.1062     3.1947 C.3     
   9 C9             2.5017    -4.1497     3.3921 C.3     
  10 C10           -0.3119    -5.8041     2.3196 C.ar    
  11 C11            0.3389    -5.4290     3.4923 C.ar    
  12 C12            0.6145    -3.7972     1.7711 C.2     
  13 N13           -0.1306    -4.8314     1.3334 N.am    
  14 O14            0.9281    -2.8104     1.1395 O.2     
  15 C15            0.2940    -6.2370     4.6066 C.ar    
  16 C16           -0.3994    -7.4337     4.5683 C.ar    
  17 C17           -1.0473    -7.8171     3.4080 C.ar    
  18 C18           -1.0059    -7.0113     2.2895 C.ar    
  19 C19           -0.6863    -4.9244    -0.0189 C.3     
  20 C20           -1.8841    -0.4301     5.6589 C.3     
  21 C21           -1.4184     0.0676     7.0478 C.3     
  22 O22            0.0107    -0.0680     6.9718 O.3     
  23 C23           -2.0543    -4.2928    -0.0445 C.ar    
  24 C24           -2.1856    -2.9457    -0.3319 C.ar    
  25 C25           -3.4350    -2.3613    -0.3574 C.ar    
  26 C26           -4.5681    -3.1322    -0.0924 C.ar    
  27 C27           -4.4286    -4.4906     0.1969 C.ar    
  28 C28           -3.1738    -5.0637     0.2140 C.ar    
  29 C29           -5.9099    -2.5126    -0.1175 C.2     
  30 N30           -7.0020    -3.2597     0.1388 N.am    
  31 O31           -6.0284    -1.3293    -0.3693 O.2     
  32 C32           -8.2590    -2.6532     0.2274 C.ar    
  33 C33           -9.0018    -2.7584     1.3963 C.ar    
  34 C34          -10.2426    -2.1579     1.4806 C.ar    
  35 C35          -10.7458    -1.4528     0.4027 C.ar    
  36 C36          -10.0091    -1.3464    -0.7627 C.ar    
  37 C37           -8.7649    -1.9394    -0.8514 C.ar    
  38 C38           -8.4546    -3.5275     2.5711 C.3     
  39 C39           -7.9625    -1.8227    -2.1216 C.3     
  40 H40           -1.4659    -2.5136     3.6218 H       
  41 H41            2.3286    -1.5959     6.6281 H       
  42 H42            3.0053    -3.5209     2.6579 H       
  43 H43            2.8692    -5.1747     3.3426 H       
  44 H44            0.8006    -5.9360     5.5117 H       
  45 H45           -0.4345    -8.0671     5.4423 H       
  46 H46           -1.5876    -8.7518     3.3776 H       
  47 H47           -1.5143    -7.3171     1.3870 H       
  48 H48           -0.0320    -4.4026    -0.7172 H       
  49 H49           -0.7645    -5.9724    -0.3082 H       
  50 H50           -1.9815     0.4008     4.9601 H       
  51 H51           -2.8201    -0.9831     5.7371 H       
  52 H52           -1.7000     1.1097     7.1990 H       
  53 H53           -1.8244    -0.5620     7.8397 H       
  54 H54           -1.3080    -2.3504    -0.5364 H       
  55 H55           -3.5361    -1.3097    -0.5816 H       
  56 H56           -5.3013    -5.0926     0.4028 H       
  57 H57           -3.0644    -6.1147     0.4373 H       
  58 H58           -6.9162    -4.2180     0.2619 H       
  59 H59          -10.8207    -2.2394     2.3892 H       
  60 H60          -11.7166    -0.9844     0.4711 H       
  61 H61          -10.4052    -0.7956    -1.6030 H       
  62 H62           -7.8829    -2.8553     3.2109 H       
  63 H63           -9.2791    -3.9571     3.1400 H       
  64 H64           -7.8059    -4.3264     2.2119 H       
  65 H65           -7.4326    -0.8702    -2.1304 H       
  66 H66           -7.2425    -2.6395    -2.1730 H       
  67 H67           -8.6319    -1.8739    -2.9803 H       
@<TRIPOS>BOND
   1    1    2 ar
   2    1    6 ar
   3    1   20 1
   4    2    3 ar
   5    2   40 1
   6    3    4 ar
   7    3    8 1
   8    4    5 ar
   9    4    7 1
  10    5    6 ar
  11    5   41 1
  12    6   22 1
  13    7    9 1
  14    8    9 1
  15    8   11 1
  16    8   12 1
  17    9   42 1
  18    9   43 1
  19   10   11 ar
  20   10   13 1
  21   10   18 ar
  22   11   15 ar
  23   12   13 am
  24   12   14 2
  25   13   19 1
  26   15   16 ar
  27   15   44 1
  28   16   17 ar
  29   16   45 1
  30   17   18 ar
  31   17   46 1
  32   18   47 1
  33   19   23 1
  34   19   48 1
  35   19   49 1
  36   20   21 1
  37   20   50 1
  38   20   51 1
  39   21   22 1
  40   21   52 1
  41   21   53 1
  42   23   24 ar
  43   23   28 ar
  44   24   25 ar
  45   24   54 1
  46   25   26 ar
  47   25   55 1
  48   26   27 ar
  49   26   29 1
  50   27   28 ar
  51   27   56 1
  52   28   57 1
  53   29   30 am
  54   29   31 2
  55   30   32 1
  56   30   58 1
  57   32   33 ar
  58   32   37 ar
  59   33   34 ar
  60   33   38 1
  61   34   35 ar
  62   34   59 1
  63   35   36 ar
  64   35   60 1
  65   36   37 ar
  66   36   61 1
  67   37   39 1
  68   38   62 1
  69   38   63 1
  70   38   64 1
  71   39   65 1
  72   39   66 1
  73   39   67 1

#	End of record

