#	Name: ASD05842022
#	Creating user name:	WinNT
#	Creation time:	15. 06. 2019 21:03

#	Modifying user name:	WinNT
#	Modification time:	15. 06. 2019 21:03

#	Program:	/corina/corina34_cracker 3.40 0067  02.08.2006

@<TRIPOS>MOLECULE
ASD05842022
  45   46    0    0    0
SMALL
NO_CHARGES


@<TRIPOS>ATOM
   1 C1             3.0941     1.6902     0.6253 C.ar    
   2 C2             3.9868     2.6508     1.0629 C.ar    
   3 C3             5.2520     2.2803     1.4786 C.ar    
   4 C4             5.6245     0.9492     1.4571 C.ar    
   5 C5             4.7315    -0.0114     1.0203 C.ar    
   6 C6             3.4648     0.3586     0.6088 C.ar    
   7 C7             1.7148     2.0941     0.1721 C.3     
   8 N8             1.7554     2.4657    -1.2486 N.3     
   9 C9             2.5740     3.6679    -1.4550 C.3     
  10 C10            1.8988     4.8660    -0.7845 C.3     
  11 C11            2.7386     6.0993    -0.9964 C.ar    
  12 C12            2.5286     6.8963    -2.1062 C.ar    
  13 C13            3.2989     8.0275    -2.3005 C.ar    
  14 C14            4.2789     8.3621    -1.3848 C.ar    
  15 C15            4.4883     7.5656    -0.2745 C.ar    
  16 C16            3.7150     6.4367    -0.0779 C.ar    
  17 C17            1.1559     0.3138    -2.2049 C.2     
  18 C18            2.2420     1.3499    -2.0709 C.3     
  19 O19            0.0562     0.5294    -1.7531 O.2     
  20 O20            1.4103    -0.8486    -2.8261 O.3     
  21 C21            0.3171    -1.7998    -2.9183 C.3     
  22 C22            0.7933    -3.0544    -3.6532 C.3     
  23 H23            3.6958     3.6907     1.0797 H       
  24 H24            5.9496     3.0308     1.8198 H       
  25 H25            6.6132     0.6599     1.7812 H       
  26 H26            5.0227    -1.0513     1.0032 H       
  27 H27            2.7672    -0.3919     0.2676 H       
  28 H28            1.0281     1.2589     0.3097 H       
  29 H29            1.3738     2.9457     0.7608 H       
  30 H30            3.5607     3.5152    -1.0176 H       
  31 H31            2.6758     3.8591    -2.5233 H       
  32 H32            0.9122     5.0187    -1.2219 H       
  33 H33            1.7970     4.6748     0.2837 H       
  34 H34            1.7629     6.6349    -2.8216 H       
  35 H35            3.1353     8.6498    -3.1679 H       
  36 H36            4.8812     9.2455    -1.5369 H       
  37 H37            5.2542     7.8268     0.4408 H       
  38 H38            3.8786     5.8145     0.7895 H       
  39 H39            2.5157     1.7193    -3.0592 H       
  40 H40            3.1148     0.9021    -1.5959 H       
  41 H41           -0.0150    -2.0699    -1.9159 H       
  42 H42           -0.5107    -1.3498    -3.4663 H       
  43 H43            1.1253    -2.7842    -4.6557 H       
  44 H44            1.6211    -3.5043    -3.1052 H       
  45 H45           -0.0274    -3.7684    -3.7225 H       
@<TRIPOS>BOND
   1    1    2 ar
   2    1    7 1
   3    1    6 ar
   4    2    3 ar
   5    2   23 1
   6    3    4 ar
   7    3   24 1
   8    4    5 ar
   9    4   25 1
  10    5    6 ar
  11    5   26 1
  12    6   27 1
  13    7    8 1
  14    7   28 1
  15    7   29 1
  16    8    9 1
  17    8   18 1
  18    9   10 1
  19    9   30 1
  20    9   31 1
  21   10   11 1
  22   10   32 1
  23   10   33 1
  24   11   12 ar
  25   11   16 ar
  26   12   13 ar
  27   12   34 1
  28   13   14 ar
  29   13   35 1
  30   14   15 ar
  31   14   36 1
  32   15   16 ar
  33   15   37 1
  34   16   38 1
  35   17   18 1
  36   17   19 2
  37   17   20 1
  38   18   39 1
  39   18   40 1
  40   20   21 1
  41   21   22 1
  42   21   41 1
  43   21   42 1
  44   22   43 1
  45   22   44 1
  46   22   45 1

#	End of record

