#	Name: ASD00170284
#	Creating user name:	WinNT
#	Creation time:	15. 06. 2019 18:31

#	Modifying user name:	WinNT
#	Modification time:	15. 06. 2019 18:31

#	Program:	/corina/corina34_cracker 3.40 0067  02.08.2006

@<TRIPOS>MOLECULE
ASD00170284
  30   32    0    0    0
SMALL
NO_CHARGES


@<TRIPOS>ATOM
   1 C1            -0.0136     1.3679    -0.1114 C.2     
   2 C2             0.0059     0.0022    -0.0095 C.2     
   3 C3            -1.3166    -0.5820     0.1307 C.2     
   4 C4            -2.2842     0.3408     0.1313 C.2     
   5 S5            -1.6100     1.9538    -0.0330 S.3     
   6 C6             1.2374    -0.7902    -0.0393 C.2     
   7 C7             1.7782    -1.2632    -1.3260 C.2     
   8 O8             1.8146    -1.0583     0.9996 O.2     
   9 N9             1.1084     2.1613    -0.2526 N.pl3   
  10 C10            1.1401    -1.0946    -2.5147 C.2     
  11 S11            2.0508    -1.7623    -3.7914 S.3     
  12 C12            3.3275    -2.2856    -2.7067 C.2     
  13 C13            3.0430    -1.9479    -1.4542 C.2     
  14 C14           -1.5788    -2.0739     0.2615 C.3     
  15 C15           -2.9933    -2.2797     0.8079 C.3     
  16 C16           -3.9797    -1.4587    -0.0280 C.3     
  17 C17           -3.7628     0.0288     0.2626 C.3     
  18 H18            1.9922     1.7644    -0.2047 H       
  19 H19            1.0125     3.1153    -0.3996 H       
  20 H20            0.1853    -0.6042    -2.6338 H       
  21 H21            4.2222    -2.8058    -3.0154 H       
  22 H22            3.6880    -2.1690    -0.6167 H       
  23 H23           -1.4925    -2.5472    -0.7166 H       
  24 H24           -0.8546    -2.5133     0.9475 H       
  25 H25           -3.2566    -3.3358     0.7487 H       
  26 H26           -3.0340    -1.9509     1.8464 H       
  27 H27           -3.8094    -1.6520    -1.0871 H       
  28 H28           -5.0003    -1.7366     0.2353 H       
  29 H29           -4.0958     0.2557     1.2754 H       
  30 H30           -4.3274     0.6270    -0.4527 H       
@<TRIPOS>BOND
   1    1    2 2
   2    1    9 1
   3    1    5 1
   4    2    3 1
   5    2    6 1
   6    3    4 2
   7    3   14 1
   8    4    5 1
   9    4   17 1
  10    6    7 1
  11    6    8 2
  12    7   10 2
  13    7   13 1
  14    9   18 1
  15    9   19 1
  16   10   11 1
  17   10   20 1
  18   11   12 1
  19   12   13 2
  20   12   21 1
  21   13   22 1
  22   14   15 1
  23   14   23 1
  24   14   24 1
  25   15   16 1
  26   15   25 1
  27   15   26 1
  28   16   17 1
  29   16   27 1
  30   16   28 1
  31   17   29 1
  32   17   30 1

#	End of record

