#	Name: ASD02440019
#	Creating user name:	WinNT
#	Creation time:	15. 06. 2019 20:21

#	Modifying user name:	WinNT
#	Modification time:	15. 06. 2019 20:21

#	Program:	/corina/corina34_cracker 3.40 0067  02.08.2006

@<TRIPOS>MOLECULE
ASD02440019
  90   94    0    0    0
SMALL
NO_CHARGES


@<TRIPOS>ATOM
   1 C1             1.5081     2.8974     0.3428 C.3     
   2 C2             0.6984     1.7204    -0.1916 C.3     
   3 C3             0.7017     0.5479     0.7959 C.3     
   4 C4             2.1105     0.2044     1.2275 C.3     
   5 C5             2.9603     1.3752     1.7064 C.3     
   6 C6             2.9454     2.4614     0.6135 C.3     
   7 C7             2.1663    -0.9223     2.2567 C.3     
   8 C8             3.6072    -1.4629     2.2478 C.3     
   9 C9             4.5870    -0.3743     2.6762 C.3     
  10 C10            4.4072     0.9013     1.8631 C.3     
  11 C11            6.0290    -0.8656     2.5343 C.3     
  12 C12            7.0216     0.2663     2.5726 C.2     
  13 C13            6.6973     1.5233     2.5414 C.2     
  14 C14            5.2750     2.0112     2.4589 C.3     
  15 C15            6.3658    -1.9338     3.5664 C.3     
  16 C16            7.8511    -2.3037     3.5385 C.3     
  17 C17            8.7151    -1.0627     3.7747 C.3     
  18 C18            8.4952    -0.1024     2.6051 C.3     
  19 C19           10.1887    -1.4621     3.8384 C.3     
  20 C20           11.0734    -0.2268     3.9809 C.3     
  21 C21           10.8414     0.7579     2.8373 C.3     
  22 C22            9.3621     1.1387     2.7503 C.3     
  23 C23           11.6590     2.0294     3.1111 C.3     
  24 C24           11.3113     0.1521     1.5153 C.3     
  25 C25            8.3151    -0.4147     5.0726 C.2     
  26 O26            7.9086     0.7231     5.0796 O.2     
  27 O27            8.4099    -1.1006     6.2224 O.3     
  28 C28            6.1850    -1.5116     1.1480 C.3     
  29 C29            4.3494    -0.0837     4.1682 C.3     
  30 C30            2.4381     2.0022     2.9929 C.3     
  31 C31           -0.2430     0.8287     1.9586 C.3     
  32 C32            0.1262    -0.6646     0.0220 C.3     
  33 O33           -0.6743     2.1429    -0.4195 O.3     
  34 C34           -0.9684     2.6359    -1.6391 C.2     
  35 O35           -0.1030     2.7110    -2.4891 O.2     
  36 C36           -2.3355     3.0824    -1.9411 C.2     
  37 C37           -2.6259     3.5691    -3.1452 C.2     
  38 C38           -4.0278     4.0270    -3.4548 C.3     
  39 H39            1.5243     3.6862    -0.4243 H       
  40 H40            1.0451     3.3114     1.2309 H       
  41 H41            1.1266     1.3854    -1.1397 H       
  42 H42            2.6287    -0.1925     0.3174 H       
  43 H43            3.3848     2.0518    -0.2945 H       
  44 H44            3.5305     3.3140     0.9540 H       
  45 H45            1.8974    -0.5823     3.2463 H       
  46 H46            1.5018    -1.7391     1.9667 H       
  47 H47            3.6674    -2.3070     2.9351 H       
  48 H48            3.7949    -1.8085     1.2322 H       
  49 H49            4.7841     0.7087     0.8376 H       
  50 H50            7.4764     2.2705     2.5740 H       
  51 H51            5.2526     2.8797     1.7903 H       
  52 H52            4.9470     2.3209     3.4421 H       
  53 H53            6.0986    -1.6612     4.5796 H       
  54 H54            5.7925    -2.8437     3.3162 H       
  55 H55            8.0523    -3.0269     4.3354 H       
  56 H56            8.1133    -2.7538     2.5845 H       
  57 H57            8.7457    -0.6161     1.6699 H       
  58 H58           10.3386    -2.1112     4.7095 H       
  59 H59           10.4560    -2.0230     2.9439 H       
  60 H60           10.8893     0.2683     4.9338 H       
  61 H61           12.1247    -0.5407     3.9642 H       
  62 H62            9.2214     1.7773     1.8676 H       
  63 H63            9.0777     1.7115     3.6310 H       
  64 H64           12.7170     1.7749     3.1724 H       
  65 H65           11.5032     2.7428     2.3018 H       
  66 H66           11.3367     2.4727     4.0533 H       
  67 H67           10.7537    -0.7631     1.3165 H       
  68 H68           11.1403     0.8644     0.7081 H       
  69 H69           12.3751    -0.0770     1.5784 H       
  70 H70            8.1413    -0.6423     7.0305 H       
  71 H71            5.9639    -0.7740     0.3765 H       
  72 H72            7.2076    -1.8689     1.0266 H       
  73 H73            5.4941    -2.3498     1.0579 H       
  74 H74            4.5887    -0.9713     4.7539 H       
  75 H75            4.9868     0.7424     4.4835 H       
  76 H76            3.3043     0.1838     4.3243 H       
  77 H77            2.2066     1.2165     3.7120 H       
  78 H78            3.1979     2.6635     3.4093 H       
  79 H79            1.5361     2.5751     2.7778 H       
  80 H80           -1.2702     0.8523     1.5946 H       
  81 H81           -0.1409     0.0434     2.7075 H       
  82 H82            0.0064     1.7913     2.4051 H       
  83 H83            0.7559    -0.8761    -0.8422 H       
  84 H84            0.1032    -1.5357     0.6767 H       
  85 H85           -0.8853    -0.4349    -0.3130 H       
  86 H86           -3.1046     3.0157    -1.1858 H       
  87 H87           -1.8568     3.6358    -3.9005 H       
  88 H88           -4.0728     4.3911    -4.4812 H       
  89 H89           -4.7177     3.1917    -3.3351 H       
  90 H90           -4.3070     4.8296    -2.7721 H       
@<TRIPOS>BOND
   1    1    2 1
   2    1    6 1
   3    1   39 1
   4    1   40 1
   5    2    3 1
   6    2   33 1
   7    2   41 1
   8    3    4 1
   9    3   31 1
  10    3   32 1
  11    4    5 1
  12    4    7 1
  13    4   42 1
  14    5    6 1
  15    5   30 1
  16    5   10 1
  17    6   43 1
  18    6   44 1
  19    7    8 1
  20    7   45 1
  21    7   46 1
  22    8    9 1
  23    8   47 1
  24    8   48 1
  25    9   10 1
  26    9   11 1
  27    9   29 1
  28   10   14 1
  29   10   49 1
  30   11   12 1
  31   11   15 1
  32   11   28 1
  33   12   13 2
  34   12   18 1
  35   13   14 1
  36   13   50 1
  37   14   51 1
  38   14   52 1
  39   15   16 1
  40   15   53 1
  41   15   54 1
  42   16   17 1
  43   16   55 1
  44   16   56 1
  45   17   18 1
  46   17   19 1
  47   17   25 1
  48   18   22 1
  49   18   57 1
  50   19   20 1
  51   19   58 1
  52   19   59 1
  53   20   21 1
  54   20   60 1
  55   20   61 1
  56   21   22 1
  57   21   23 1
  58   21   24 1
  59   22   62 1
  60   22   63 1
  61   23   64 1
  62   23   65 1
  63   23   66 1
  64   24   67 1
  65   24   68 1
  66   24   69 1
  67   25   26 2
  68   25   27 1
  69   27   70 1
  70   28   71 1
  71   28   72 1
  72   28   73 1
  73   29   74 1
  74   29   75 1
  75   29   76 1
  76   30   77 1
  77   30   78 1
  78   30   79 1
  79   31   80 1
  80   31   81 1
  81   31   82 1
  82   32   83 1
  83   32   84 1
  84   32   85 1
  85   33   34 1
  86   34   35 2
  87   34   36 1
  88   36   37 2
  89   36   86 1
  90   37   38 1
  91   37   87 1
  92   38   88 1
  93   38   89 1
  94   38   90 1

#	End of record

