#	Name: ASD03331759
#	Creating user name:	WinNT
#	Creation time:	15. 06. 2019 20:39

#	Modifying user name:	WinNT
#	Modification time:	15. 06. 2019 20:39

#	Program:	/corina/corina34_cracker 3.40 0067  02.08.2006

@<TRIPOS>MOLECULE
ASD03331759
  53   57    0    0    0
SMALL
NO_CHARGES


@<TRIPOS>ATOM
   1 C1             0.2172     1.0159     2.6773 C.3     
   2 C2             0.7892    -0.3613     2.2816 C.3     
   3 C3             1.6337    -0.0904     1.0152 C.3     
   4 C4             3.0563     0.2751     1.4681 C.3     
   5 C5             2.9681     1.3211     2.5832 C.3     
   6 C6             2.1278     2.5109     2.1106 C.3     
   7 C7             0.7681     1.9938     1.6141 C.3     
   8 N8             1.0294     1.1352     0.4283 N.3     
   9 C9            -0.2191     0.8198    -0.2787 C.3     
  10 C10            1.9165     3.4664     3.2566 C.2     
  11 C11            2.3253     0.7047     3.7989 C.ar    
  12 C12            2.4755    -0.6463     4.0501 C.ar    
  13 C13            1.8858    -1.2117     5.1652 C.ar    
  14 C14            1.1463    -0.4259     6.0294 C.ar    
  15 C15            0.9969     0.9253     5.7786 C.ar    
  16 C16            1.5902     1.4914     4.6658 C.ar    
  17 C17            0.5026    -1.0425     7.2445 C.3     
  18 C18            2.8577     3.9150     4.1178 C.2     
  19 C19            2.1396     4.7798     4.9903 C.2     
  20 N20            0.8959     4.7605     4.5791 N.2     
  21 O21            0.7601     4.0413     3.6167 O.3     
  22 C22            2.6887     5.5484     6.1350 C.ar    
  23 C23            1.8508     6.3575     6.8998 C.ar    
  24 C24            2.3660     7.0702     7.9631 C.ar    
  25 C25            3.7131     6.9827     8.2703 C.ar    
  26 C26            4.5497     6.1805     7.5131 C.ar    
  27 C27            4.0425     5.4588     6.4519 C.ar    
  28 Cl28           4.3555     7.8822     9.6089 Cl      
  29 H29           -0.8723     0.9970     2.6471 H       
  30 H30            0.5650     1.3000     3.6705 H       
  31 H31            1.4184    -0.7544     3.0802 H       
  32 H32           -0.0190    -1.0574     2.0569 H       
  33 H33            1.6264    -0.9352     0.3265 H       
  34 H34            3.5605    -0.6158     1.8423 H       
  35 H35            3.6134     0.6855     0.6259 H       
  36 H36            3.9707     1.6640     2.8387 H       
  37 H37            2.6432     3.0217     1.2973 H       
  38 H38            0.0728     2.8059     1.4015 H       
  39 H39           -0.9299     0.3772     0.4191 H       
  40 H40           -0.6411     1.7340    -0.6962 H       
  41 H41           -0.0127     0.1143    -1.0835 H       
  42 H42            3.0532    -1.2602     3.3750 H       
  43 H43            2.0025    -2.2673     5.3612 H       
  44 H44            0.4188     1.5391     6.4535 H       
  45 H45            1.4735     2.5471     4.4699 H       
  46 H46            1.1947    -0.9961     8.0853 H       
  47 H47           -0.4066    -0.4943     7.4916 H       
  48 H48            0.2540    -2.0830     7.0355 H       
  49 H49            3.9100     3.6728     4.1388 H       
  50 H50            0.8000     6.4269     6.6605 H       
  51 H51            1.7174     7.6976     8.5565 H       
  52 H52            5.6000     6.1160     7.7561 H       
  53 H53            4.6959     4.8333     5.8618 H       
@<TRIPOS>BOND
   1    1    2 1
   2    1    7 1
   3    1   29 1
   4    1   30 1
   5    2    3 1
   6    2   31 1
   7    2   32 1
   8    3    4 1
   9    3    8 1
  10    3   33 1
  11    4    5 1
  12    4   34 1
  13    4   35 1
  14    5    6 1
  15    5   11 1
  16    5   36 1
  17    6    7 1
  18    6   10 1
  19    6   37 1
  20    7    8 1
  21    7   38 1
  22    8    9 1
  23    9   39 1
  24    9   40 1
  25    9   41 1
  26   10   18 2
  27   10   21 1
  28   11   12 ar
  29   11   16 ar
  30   12   13 ar
  31   12   42 1
  32   13   14 ar
  33   13   43 1
  34   14   15 ar
  35   14   17 1
  36   15   16 ar
  37   15   44 1
  38   16   45 1
  39   17   46 1
  40   17   47 1
  41   17   48 1
  42   18   19 1
  43   18   49 1
  44   19   20 2
  45   19   22 1
  46   20   21 1
  47   22   23 ar
  48   22   27 ar
  49   23   24 ar
  50   23   50 1
  51   24   25 ar
  52   24   51 1
  53   25   26 ar
  54   25   28 1
  55   26   27 ar
  56   26   52 1
  57   27   53 1

#	End of record

