#	Name: ASD01881032
#	Creating user name:	WinNT
#	Creation time:	15. 06. 2019 19:41

#	Modifying user name:	WinNT
#	Modification time:	15. 06. 2019 19:41

#	Program:	/corina/corina34_cracker 3.40 0067  02.08.2006

@<TRIPOS>MOLECULE
ASD01881032
  34   36    0    0    0
SMALL
NO_CHARGES


@<TRIPOS>ATOM
   1 O1            -0.0177     1.4528     0.0100 O.3     
   2 C2             0.0021    -0.0041     0.0020 C.3     
   3 C3             1.5020    -0.3567    -0.0142 C.3     
   4 N4             2.1700     0.9538    -0.0135 N.am    
   5 C5             1.2374     1.9159     0.0005 C.2     
   6 C6            -0.6652    -0.5565     1.2632 C.3     
   7 C7            -2.1341    -0.2207     1.2425 C.ar    
   8 O8             1.5070     3.1008     0.0039 O.2     
   9 C9             3.5539     1.1619    -0.0256 C.ar    
  10 C10            4.0633     2.4537    -0.0236 C.ar    
  11 C11            5.4295     2.6558    -0.0356 C.ar    
  12 C12            6.2899     1.5733    -0.0501 C.ar    
  13 C13            5.7858     0.2857    -0.0527 C.ar    
  14 C14            4.4206     0.0769    -0.0340 C.ar    
  15 C15           -3.0347    -1.0947     0.6627 C.ar    
  16 C16           -4.3822    -0.7867     0.6437 C.ar    
  17 C17           -4.8291     0.3950     1.2048 C.ar    
  18 C18           -3.9286     1.2685     1.7853 C.ar    
  19 C19           -2.5817     0.9585     1.8082 C.ar    
  20 H20           -0.4904    -0.3880    -0.8914 H       
  21 H21            1.7715    -0.9243     0.8765 H       
  22 H22            1.7544    -0.9146    -0.9159 H       
  23 H23           -0.5402    -1.6388     1.2960 H       
  24 H24           -0.2029    -0.1105     2.1438 H       
  25 H25            3.3918     3.2996    -0.0129 H       
  26 H26            5.8263     3.6602    -0.0340 H       
  27 H27            7.3578     1.7339    -0.0598 H       
  28 H28            6.4603    -0.5577    -0.0647 H       
  29 H29            4.0275    -0.9290    -0.0360 H       
  30 H30           -2.6856    -2.0179     0.2244 H       
  31 H31           -5.0857    -1.4691     0.1901 H       
  32 H32           -5.8818     0.6359     1.1892 H       
  33 H33           -4.2778     2.1918     2.2234 H       
  34 H34           -1.8782     1.6409     2.2618 H       
@<TRIPOS>BOND
   1    1    2 1
   2    1    5 1
   3    2    3 1
   4    2    6 1
   5    2   20 1
   6    3    4 1
   7    3   21 1
   8    3   22 1
   9    4    5 am
  10    4    9 1
  11    5    8 2
  12    6    7 1
  13    6   23 1
  14    6   24 1
  15    7   15 ar
  16    7   19 ar
  17    9   10 ar
  18    9   14 ar
  19   10   11 ar
  20   10   25 1
  21   11   12 ar
  22   11   26 1
  23   12   13 ar
  24   12   27 1
  25   13   14 ar
  26   13   28 1
  27   14   29 1
  28   15   16 ar
  29   15   30 1
  30   16   17 ar
  31   16   31 1
  32   17   18 ar
  33   17   32 1
  34   18   19 ar
  35   18   33 1
  36   19   34 1

#	End of record

