#	Name: ASD02500827
#	Creating user name:	WinNT
#	Creation time:	15. 06. 2019 20:23

#	Modifying user name:	WinNT
#	Modification time:	15. 06. 2019 20:23

#	Program:	/corina/corina34_cracker 3.40 0067  02.08.2006

@<TRIPOS>MOLECULE
ASD02500827
  33   34    0    0    0
SMALL
NO_CHARGES


@<TRIPOS>ATOM
   1 C1            -0.0166     1.3761     0.0096 C.ar    
   2 C2             0.0021    -0.0041     0.0020 C.ar    
   3 C3             1.2135    -0.6821    -0.0132 C.ar    
   4 C4             2.4069     0.0274    -0.0208 C.ar    
   5 C5             2.3896     1.4076    -0.0127 C.ar    
   6 C6             1.1774     2.0869     0.0020 C.ar    
   7 S7             1.1544     3.8487     0.0117 S.3     
   8 N8             1.2318    -2.0857    -0.0204 N.pl3   
   9 C9            -0.6182     4.2336     0.0300 C.3     
  10 C10           -0.8075     5.7286     0.0398 C.2     
  11 O11            0.1546     6.4595     0.0349 O.2     
  12 O12           -2.0450     6.2483     0.0539 O.3     
  13 C13            1.7011    -2.8704    -1.0343 C.2     
  14 C14            1.5512    -4.1610    -0.6723 C.2     
  15 C15            0.9687    -4.1752     0.6108 C.2     
  16 C16            0.7887    -2.8927     0.9877 C.2     
  17 C17            0.1930    -2.4305     2.2925 C.3     
  18 C18            2.2853    -2.3793    -2.3338 C.3     
  19 H19           -0.9591     1.9034     0.0169 H       
  20 H20           -0.9258    -0.5566     0.0083 H       
  21 H21            3.3489    -0.5006    -0.0326 H       
  22 H22            3.3180     1.9594    -0.0179 H       
  23 H23           -1.0904     3.8133    -0.8579 H       
  24 H24           -1.0741     3.8038     0.9219 H       
  25 H25           -2.1162     7.2127     0.0598 H       
  26 H26            1.8272    -5.0252    -1.2583 H       
  27 H27            0.7164    -5.0523     1.1882 H       
  28 H28            0.9850    -2.3130     3.0321 H       
  29 H29           -0.3101    -1.4750     2.1440 H       
  30 H30           -0.5268    -3.1691     2.6451 H       
  31 H31            3.3619    -2.2501    -2.2224 H       
  32 H32            2.0862    -3.1077    -3.1199 H       
  33 H33            1.8303    -1.4250    -2.5991 H       
@<TRIPOS>BOND
   1    1    2 ar
   2    1    6 ar
   3    1   19 1
   4    2    3 ar
   5    2   20 1
   6    3    4 ar
   7    3    8 1
   8    4    5 ar
   9    4   21 1
  10    5    6 ar
  11    5   22 1
  12    6    7 1
  13    7    9 1
  14    8   13 1
  15    8   16 1
  16    9   10 1
  17    9   23 1
  18    9   24 1
  19   10   11 2
  20   10   12 1
  21   12   25 1
  22   13   14 2
  23   13   18 1
  24   14   15 1
  25   14   26 1
  26   15   16 2
  27   15   27 1
  28   16   17 1
  29   17   28 1
  30   17   29 1
  31   17   30 1
  32   18   31 1
  33   18   32 1
  34   18   33 1

#	End of record

