#	Name: ASD01810233
#	Creating user name:	WinNT
#	Creation time:	15. 06. 2019 19:24

#	Modifying user name:	WinNT
#	Modification time:	15. 06. 2019 19:24

#	Program:	/corina/corina34_cracker 3.40 0067  02.08.2006

@<TRIPOS>MOLECULE
ASD01810233
  50   53    0    0    0
SMALL
NO_CHARGES


@<TRIPOS>ATOM
   1 C1             0.0230     1.3641    -0.0277 C.ar    
   2 C2             0.0353    -0.0236    -0.0385 C.ar    
   3 C3             1.2274    -0.7171    -0.0391 C.ar    
   4 C4             2.4369    -0.0222    -0.0293 C.ar    
   5 C5             2.4196     1.3821    -0.0189 C.ar    
   6 C6             1.2055     2.0696    -0.0178 C.ar    
   7 N7             3.6357    -0.7030    -0.0293 N.pl3   
   8 C8             4.8222    -0.0829    -0.0197 C.2     
   9 C9             4.9328     1.2931    -0.0085 C.2     
  10 C10            3.7052     2.1049    -0.0086 C.2     
  11 O11            3.7491     3.3226     0.0007 O.2     
  12 C12            6.2542     1.9365     0.0032 C.2     
  13 O13            6.3490     3.2812     0.0141 O.3     
  14 O14            7.2616     1.2561     0.0032 O.2     
  15 C15            3.6102    -2.1678    -0.0398 C.3     
  16 C16            3.4626    -2.6574    -1.4574 C.ar    
  17 N17            2.2593    -2.7547    -1.9886 N.ar    
  18 C18            2.0763    -3.1770    -3.2231 C.ar    
  19 C19            3.1622    -3.5390    -4.0169 C.ar    
  20 C20            4.4505    -3.4471    -3.4828 C.ar    
  21 C21            4.5914    -2.9925    -2.1830 C.ar    
  22 C22            2.9546    -4.0150    -5.4070 C.ar    
  23 F23            1.2237    -2.0681    -0.0488 F       
  24 C24            1.6673    -4.1033    -5.9294 C.ar    
  25 C25            1.4799    -4.5485    -7.2295 C.ar    
  26 C26            2.5755    -4.9045    -8.0060 C.ar    
  27 C27            3.8532    -4.8169    -7.4863 C.ar    
  28 C28            4.0484    -4.3693    -6.1951 C.ar    
  29 N29            0.1876    -4.6394    -7.7588 N.am    
  30 C30           -0.0263    -4.3764    -9.0632 C.2     
  31 C31           -1.3931    -4.5908    -9.6607 C.3     
  32 O32            0.8811    -3.9673    -9.7561 O.2     
  33 H33           -0.9185     1.8933    -0.0315 H       
  34 H34           -0.8985    -0.5661    -0.0461 H       
  35 H35            1.1932     3.1495    -0.0102 H       
  36 H36            5.7228    -0.6790    -0.0203 H       
  37 H37            7.2394     3.6585     0.0216 H       
  38 H38            4.5397    -2.5504     0.3818 H       
  39 H39            2.7685    -2.5208     0.5560 H       
  40 H40            1.0754    -3.2436    -3.6230 H       
  41 H41            5.3144    -3.7196    -4.0708 H       
  42 H42            5.5716    -2.9085    -1.7374 H       
  43 H43            0.8169    -3.8264    -5.3239 H       
  44 H44            2.4284    -5.2510    -9.0183 H       
  45 H45            4.7018    -5.0951    -8.0937 H       
  46 H46            5.0483    -4.3018    -5.7925 H       
  47 H47           -0.5541    -4.8917    -7.1868 H       
  48 H48           -2.0723    -4.9584    -8.8915 H       
  49 H49           -1.7688    -3.6471   -10.0563 H       
  50 H50           -1.3268    -5.3219   -10.4664 H       
@<TRIPOS>BOND
   1    1    2 ar
   2    1    6 ar
   3    1   33 1
   4    2    3 ar
   5    2   34 1
   6    3    4 ar
   7    3   23 1
   8    4    5 ar
   9    4    7 1
  10    5    6 ar
  11    5   10 1
  12    6   35 1
  13    7    8 1
  14    7   15 1
  15    8    9 2
  16    8   36 1
  17    9   10 1
  18    9   12 1
  19   10   11 2
  20   12   13 1
  21   12   14 2
  22   13   37 1
  23   15   16 1
  24   15   38 1
  25   15   39 1
  26   16   17 ar
  27   16   21 ar
  28   17   18 ar
  29   18   19 ar
  30   18   40 1
  31   19   20 ar
  32   19   22 1
  33   20   21 ar
  34   20   41 1
  35   21   42 1
  36   22   24 ar
  37   22   28 ar
  38   24   25 ar
  39   24   43 1
  40   25   26 ar
  41   25   29 1
  42   26   27 ar
  43   26   44 1
  44   27   28 ar
  45   27   45 1
  46   28   46 1
  47   29   30 am
  48   29   47 1
  49   30   31 1
  50   30   32 2
  51   31   48 1
  52   31   49 1
  53   31   50 1

#	End of record

