#	Name: ASD07930731
#	Creating user name:	WinNT
#	Creation time:	15. 06. 2019 21:13

#	Modifying user name:	WinNT
#	Modification time:	15. 06. 2019 21:13

#	Program:	/corina/corina34_cracker 3.40 0067  02.08.2006

@<TRIPOS>MOLECULE
ASD07930731
  35   36    0    0    0
SMALL
NO_CHARGES


@<TRIPOS>ATOM
   1 C1            -0.0178     1.4608     0.0101 C.3     
   2 N2            -0.8289    -0.4364    -2.1465 N.2     
   3 N3             0.9055    -1.7596    -1.3083 N.pl3   
   4 C4             0.9741    -2.7999    -0.2768 C.3     
   5 C5             1.2929    -2.1501     1.0768 C.3     
   6 S6             0.0275    -0.8859     1.4156 S.o2    
   7 N7             0.0021    -0.0041     0.0020 N.am    
   8 C8             0.0002    -0.7257    -1.1832 C.2     
   9 C9             2.0736    -3.8020    -0.6341 C.3     
  10 O10           -1.2641    -1.4733     1.4938 O.2     
  11 O11            0.4822     0.0314     2.4011 O.2     
  12 C12           -0.3503    -3.5142    -0.1937 C.ar    
  13 C13           -0.5259    -4.5431     0.7156 C.ar    
  14 C14           -1.7429    -5.1991     0.7923 C.ar    
  15 C15           -2.7821    -4.8265    -0.0384 C.ar    
  16 C16           -2.6065    -3.7973    -0.9480 C.ar    
  17 C17           -1.3913    -3.1382    -1.0213 C.ar    
  18 F18            0.4903    -4.9075     1.5279 F       
  19 F19           -3.6225    -3.4332    -1.7606 F       
  20 C20            2.6745    -1.4952     1.0219 C.3     
  21 H21            1.0048     1.8381     0.0023 H       
  22 H22           -0.5450     1.8219    -0.8730 H       
  23 H23           -0.5280     1.8123     0.9069 H       
  24 H24           -1.4585     0.2940    -2.0415 H       
  25 H25            1.4984    -1.7960    -2.0752 H       
  26 H26            1.2753    -2.9070     1.8610 H       
  27 H27            3.0314    -3.2851    -0.6924 H       
  28 H28            2.1240    -4.5749     0.1329 H       
  29 H29            1.8487    -4.2601    -1.5972 H       
  30 H30           -1.8797    -6.0023     1.5012 H       
  31 H31           -3.7313    -5.3382     0.0214 H       
  32 H32           -1.2544    -2.3353    -1.7305 H       
  33 H33            2.6843    -0.7321     0.2437 H       
  34 H34            2.8970    -1.0352     1.9847 H       
  35 H35            3.4266    -2.2519     0.7983 H       
@<TRIPOS>BOND
   1    1    7 1
   2    1   21 1
   3    1   22 1
   4    1   23 1
   5    2    8 2
   6    2   24 1
   7    3    4 1
   8    3    8 1
   9    3   25 1
  10    4    9 1
  11    4   12 1
  12    4    5 1
  13    5    6 1
  14    5   20 1
  15    5   26 1
  16    6    7 am
  17    6   10 2
  18    6   11 2
  19    7    8 1
  20    9   27 1
  21    9   28 1
  22    9   29 1
  23   12   13 ar
  24   12   17 ar
  25   13   14 ar
  26   13   18 1
  27   14   15 ar
  28   14   30 1
  29   15   16 ar
  30   15   31 1
  31   16   17 ar
  32   16   19 1
  33   17   32 1
  34   20   33 1
  35   20   34 1
  36   20   35 1

#	End of record

