#	Name: ASD05430195
#	Creating user name:	WinNT
#	Creation time:	15. 06. 2019 20:59

#	Modifying user name:	WinNT
#	Modification time:	15. 06. 2019 20:59

#	Program:	/corina/corina34_cracker 3.40 0067  02.08.2006

@<TRIPOS>MOLECULE
ASD05430195
  71   76    0    0    0
SMALL
NO_CHARGES


@<TRIPOS>ATOM
   1 C1            -0.0168     1.3884     0.0097 C.ar    
   2 C2             0.0021    -0.0041     0.0020 C.ar    
   3 C3             1.2145    -0.6775    -0.0132 C.ar    
   4 C4             2.3994     0.0334    -0.0207 C.ar    
   5 C5             2.3802     1.4162    -0.0131 C.ar    
   6 C6             1.1759     2.0942     0.0021 C.ar    
   7 C7             5.4790     3.1266    -1.4854 C.3     
   8 C8             4.1005     2.4540    -1.4665 C.3     
   9 C9             3.6758     2.1858    -0.0213 C.3     
  10 C10            5.7965     3.5965    -2.9092 C.3     
  11 C11            4.8822     4.7740    -3.2765 C.3     
  12 N12            3.4991     4.3814    -3.0132 N.pl3   
  13 C13            3.1119     3.3935    -2.1245 C.2     
  14 N14            1.8409     3.4213    -1.9449 N.2     
  15 C15            2.0507     4.3022    -4.9832 C.ar    
  16 C16            0.7735     4.2261    -5.5069 C.ar    
  17 N17           -1.2028    -0.7242     0.0101 N.pl3   
  18 C18           -2.2475    -0.5399     0.8578 C.2     
  19 C19           -1.5492    -1.7421    -0.8399 C.2     
  20 C20           -2.7831    -2.1463    -0.4821 C.2     
  21 N21           -3.1847    -1.3967     0.5550 N.2     
  22 C22           -3.5770    -3.2473    -1.1367 C.3     
  23 C23            0.5715     3.6800    -6.7602 C.ar    
  24 C24            1.6487     3.2089    -7.4914 C.ar    
  25 C25            2.9274     3.2857    -6.9659 C.ar    
  26 C26            3.1271     3.8322    -5.7124 C.ar    
  27 F27            1.4523     2.6744    -8.7165 F       
  28 C28           -1.1448     3.4815     0.0264 C.3     
  29 O29           -1.2023     2.0537     0.0189 O.3     
  30 C30            2.2705     4.9037    -3.6190 C.3     
  31 O31            1.2486     4.4686    -2.6983 O.3     
  32 C32            2.3128     6.4310    -3.6991 C.3     
  33 C33            7.2627     4.0680    -2.9651 C.3     
  34 C34            8.0950     2.7471    -2.9517 C.3     
  35 P35            6.9524     1.6904    -3.9529 P.3     
  36 O36            5.5503     2.5150    -3.8242 O.3     
  37 O37            7.4360     1.6090    -5.4864 O.3     
  38 O38            6.8286     0.3377    -3.3652 O.2     
  39 C39            6.8000     0.7785    -6.4600 C.3     
  40 H40            1.2325    -1.7573    -0.0188 H       
  41 H41            3.3428    -0.4921    -0.0321 H       
  42 H42            1.1643     3.1741     0.0083 H       
  43 H43            5.4746     3.9838    -0.8122 H       
  44 H44            6.2363     2.4130    -1.1607 H       
  45 H45            4.1412     1.5151    -2.0187 H       
  46 H46            3.5387     3.1338     0.4990 H       
  47 H47            4.4476     1.6034     0.4821 H       
  48 H48            5.1395     5.6420    -2.6696 H       
  49 H49            5.0008     5.0155    -4.3328 H       
  50 H50           -0.0666     4.5933    -4.9362 H       
  51 H51           -2.2949     0.1924     1.6501 H       
  52 H52           -0.9482    -2.1429    -1.6428 H       
  53 H53           -3.3567    -4.1953    -0.6460 H       
  54 H54           -4.6414    -3.0304    -1.0470 H       
  55 H55           -3.3071    -3.3124    -2.1908 H       
  56 H56           -0.4264     3.6203    -7.1690 H       
  57 H57            3.7685     2.9185    -7.5353 H       
  58 H58            4.1244     3.8922    -5.3022 H       
  59 H59           -0.6126     3.8191     0.9157 H       
  60 H60           -0.6210     3.8288    -0.8642 H       
  61 H61           -2.1570     3.8859     0.0334 H       
  62 H62            3.1635     6.7395    -4.3068 H       
  63 H63            1.3912     6.7968    -4.1518 H       
  64 H64            2.4139     6.8448    -2.6958 H       
  65 H65            7.4486     4.6261    -3.8827 H       
  66 H66            7.5005     4.6770    -2.0929 H       
  67 H67            9.0581     2.8754    -3.4457 H       
  68 H68            8.2156     2.3598    -1.9400 H       
  69 H69            5.7549     1.0714    -6.5604 H       
  70 H70            7.3033     0.8933    -7.4200 H       
  71 H71            6.8566    -0.2626    -6.1422 H       
@<TRIPOS>BOND
   1    1    2 ar
   2    1    6 ar
   3    1   29 1
   4    2    3 ar
   5    2   17 1
   6    3    4 ar
   7    3   40 1
   8    4    5 ar
   9    4   41 1
  10    5    6 ar
  11    5    9 1
  12    6   42 1
  13    7    8 1
  14    7   10 1
  15    7   43 1
  16    7   44 1
  17    8    9 1
  18    8   13 1
  19    8   45 1
  20    9   46 1
  21    9   47 1
  22   10   11 1
  23   10   33 1
  24   10   36 1
  25   11   12 1
  26   11   48 1
  27   11   49 1
  28   12   13 1
  29   12   30 1
  30   13   14 2
  31   14   31 1
  32   15   16 ar
  33   15   26 ar
  34   15   30 1
  35   16   23 ar
  36   16   50 1
  37   17   18 1
  38   17   19 1
  39   18   21 2
  40   18   51 1
  41   19   20 2
  42   19   52 1
  43   20   21 1
  44   20   22 1
  45   22   53 1
  46   22   54 1
  47   22   55 1
  48   23   24 ar
  49   23   56 1
  50   24   25 ar
  51   24   27 1
  52   25   26 ar
  53   25   57 1
  54   26   58 1
  55   28   29 1
  56   28   59 1
  57   28   60 1
  58   28   61 1
  59   30   31 1
  60   30   32 1
  61   32   62 1
  62   32   63 1
  63   32   64 1
  64   33   34 1
  65   33   65 1
  66   33   66 1
  67   34   35 1
  68   34   67 1
  69   34   68 1
  70   35   36 1
  71   35   37 1
  72   35   38 2
  73   37   39 1
  74   39   69 1
  75   39   70 1
  76   39   71 1

#	End of record

