#	Name: ASD01881119
#	Creating user name:	WinNT
#	Creation time:	15. 06. 2019 19:42

#	Modifying user name:	WinNT
#	Modification time:	15. 06. 2019 19:42

#	Program:	/corina/corina34_cracker 3.40 0067  02.08.2006

@<TRIPOS>MOLECULE
ASD01881119
  53   56    0    0    0
SMALL
NO_CHARGES


@<TRIPOS>ATOM
   1 N1            -0.0158     1.3133     0.0093 N.ar    
   2 C2             0.0021    -0.0041     0.0020 C.ar    
   3 N3             1.1310    -0.6839    -0.0124 N.ar    
   4 C4             2.3020    -0.0629    -0.0203 C.ar    
   5 C5             2.3325     1.3179    -0.0131 C.ar    
   6 C6             1.1186     2.0075     0.0022 C.ar    
   7 C7             3.6432     2.0616    -0.0217 C.3     
   8 O8             4.0446     2.3039    -1.3715 O.3     
   9 C9             5.2131     2.9688    -1.5570 C.ar    
  10 C10            5.6627     3.2377    -2.8465 C.ar    
  11 C11            6.8441     3.9105    -3.0338 C.ar    
  12 C12            7.6023     4.3294    -1.9351 C.ar    
  13 C13            7.1465     4.0568    -0.6409 C.ar    
  14 C14            5.9560     3.3851    -0.4595 C.ar    
  15 C15            7.5976     4.3520    -4.2638 C.3     
  16 N16            8.8049     5.0327    -3.7820 N.am    
  17 C17            8.8032     5.0171    -2.4380 C.2     
  18 O18            9.6701     5.5024    -1.7370 O.2     
  19 C19            3.5846    -0.8540    -0.0363 C.3     
  20 Cl20           8.0746     4.5686     0.7340 Cl      
  21 N21            1.0960     3.3927     0.0094 N.pl3   
  22 C22           -0.1844     4.1044     0.0254 C.3     
  23 C23            0.0668     5.5903     0.0305 C.ar    
  24 C24            0.1704     6.2778    -1.1643 C.ar    
  25 C25            0.4009     7.6408    -1.1597 C.ar    
  26 C26            0.5273     8.3163     0.0397 C.ar    
  27 C27            0.4229     7.6290     1.2345 C.ar    
  28 C28            0.1881     6.2667     1.2299 C.ar    
  29 C29            9.4895     7.0936    -4.9068 C.3     
  30 C30            9.8413     5.6312    -4.6268 C.3     
  31 H31           -0.9345    -0.5418     0.0084 H       
  32 H32            3.5250     3.0122     0.4984 H       
  33 H33            4.4033     1.4641     0.4817 H       
  34 H34            5.0824     2.9169    -3.6990 H       
  35 H35            5.6037     3.1748     0.5396 H       
  36 H36            7.8709     3.4860    -4.8667 H       
  37 H37            6.9881     5.0399    -4.8498 H       
  38 H38            3.8842    -1.0395    -1.0677 H       
  39 H39            4.3658    -0.2898     0.4731 H       
  40 H40            3.4315    -1.8048     0.4743 H       
  41 H41            1.9280     3.8913     0.0038 H       
  42 H42           -0.7603     3.8362    -0.8604 H       
  43 H43           -0.7429     3.8273     0.9195 H       
  44 H44            0.0716     5.7500    -2.1014 H       
  45 H45            0.4825     8.1778    -2.0931 H       
  46 H46            0.7081     9.3811     0.0433 H       
  47 H47            0.5220     8.1567     2.1715 H       
  48 H48            0.1064     5.7297     2.1633 H       
  49 H49           10.2606     7.5390    -5.5354 H       
  50 H50            8.5288     7.1445    -5.4193 H       
  51 H51            9.4283     7.6393    -3.9652 H       
  52 H52           10.8020     5.5804    -4.1143 H       
  53 H53            9.9025     5.0855    -5.5684 H       
@<TRIPOS>BOND
   1    1    2 ar
   2    1    6 ar
   3    2    3 ar
   4    2   31 1
   5    3    4 ar
   6    4    5 ar
   7    4   19 1
   8    5    6 ar
   9    5    7 1
  10    6   21 1
  11    7    8 1
  12    7   32 1
  13    7   33 1
  14    8    9 1
  15    9   10 ar
  16    9   14 ar
  17   10   11 ar
  18   10   34 1
  19   11   12 ar
  20   11   15 1
  21   12   13 ar
  22   12   17 1
  23   13   14 ar
  24   13   20 1
  25   14   35 1
  26   15   16 1
  27   15   36 1
  28   15   37 1
  29   16   17 am
  30   16   30 1
  31   17   18 2
  32   19   38 1
  33   19   39 1
  34   19   40 1
  35   21   22 1
  36   21   41 1
  37   22   23 1
  38   22   42 1
  39   22   43 1
  40   23   24 ar
  41   23   28 ar
  42   24   25 ar
  43   24   44 1
  44   25   26 ar
  45   25   45 1
  46   26   27 ar
  47   26   46 1
  48   27   28 ar
  49   27   47 1
  50   28   48 1
  51   29   30 1
  52   29   49 1
  53   29   50 1
  54   29   51 1
  55   30   52 1
  56   30   53 1

#	End of record

