#	Name: ASD03331523
#	Creating user name:	WinNT
#	Creation time:	15. 06. 2019 20:39

#	Modifying user name:	WinNT
#	Modification time:	15. 06. 2019 20:39

#	Program:	/corina/corina34_cracker 3.40 0067  02.08.2006

@<TRIPOS>MOLECULE
ASD03331523
  67   70    0    0    0
SMALL
NO_CHARGES


@<TRIPOS>ATOM
   1 C1             0.7657     1.7868     0.3242 C.ar    
   2 C2             0.6130     0.3152     0.3275 C.2     
   3 N3            -0.4656    -0.3720     0.8035 N.pl3   
   4 C4            -0.2078    -1.6928     0.6419 C.2     
   5 C5             1.0130    -1.7974     0.0503 C.2     
   6 N6             1.4897    -0.5464    -0.1321 N.2     
   7 C7             1.6910    -3.0498    -0.3285 C.2     
   8 N8             2.9057    -3.0090    -0.9110 N.am    
   9 C9            -0.3548     2.6077     0.4546 C.ar    
  10 O10            1.1544    -4.1203    -0.1154 O.2     
  11 C11            3.5796    -4.2540    -1.2876 C.3     
  12 C12           -0.2056     3.9793     0.4513 C.ar    
  13 C13            1.0517     4.5410     0.3186 C.ar    
  14 C14            2.1668     3.7325     0.1889 C.ar    
  15 C15            2.0316     2.3594     0.1965 C.ar    
  16 C16           -1.6915     0.1958     1.3713 C.3     
  17 C17           -2.3080    -0.8085     2.3480 C.3     
  18 N18           -3.2280    -1.7010     1.6345 N.3     
  19 C19           -2.5464    -2.4896     0.6063 C.3     
  20 C20           -1.1214    -2.8122     1.0672 C.3     
  21 C21            3.0944    -4.6991    -2.6687 C.3     
  22 N22            5.9133    -5.0507    -1.0925 N.am    
  23 C23            5.0689    -4.0269    -1.3276 C.2     
  24 C24            7.3568    -4.8094    -1.0272 C.3     
  25 O25            5.5075    -2.9227    -1.5714 O.2     
  26 C26            3.3107    -3.5667    -3.6746 C.3     
  27 C27            3.8822    -5.9332    -3.1128 C.3     
  28 C28            1.6050    -5.0424    -2.5998 C.3     
  29 C29           -3.9508    -2.5708     2.5721 C.3     
  30 C30           -5.0692    -3.3040     1.8287 C.3     
  31 C31           -5.8673    -4.3511     2.6082 C.3     
  32 C32           -6.5098    -3.0092     2.2512 C.3     
  33 H33            3.3336    -2.1553    -1.0810 H       
  34 H34           -1.3369     2.1704     0.5576 H       
  35 H35            3.3497    -5.0277    -0.5550 H       
  36 H36           -1.0722     4.6159     0.5522 H       
  37 H37            1.1632     5.6152     0.3159 H       
  38 H38            3.1456     4.1770     0.0853 H       
  39 H39            2.9028     1.7292     0.0956 H       
  40 H40           -1.4541     1.1190     1.9000 H       
  41 H41           -2.4000     0.4064     0.5702 H       
  42 H42           -1.5157    -1.3986     2.8085 H       
  43 H43           -2.8539    -0.2709     3.1233 H       
  44 H44           -3.0928    -3.4179     0.4391 H       
  45 H45           -2.5074    -1.9196    -0.3220 H       
  46 H46           -0.7923    -3.7457     0.6107 H       
  47 H47           -1.1014    -2.9075     2.1529 H       
  48 H48            5.5652    -5.9473    -0.9665 H       
  49 H49            7.6997    -4.3979    -1.9765 H       
  50 H50            7.5711    -4.1020    -0.2261 H       
  51 H51            7.8737    -5.7486    -0.8304 H       
  52 H52            4.3718    -3.3222    -3.7237 H       
  53 H53            2.9650    -3.8838    -4.6585 H       
  54 H54            2.7495    -2.6875    -3.3582 H       
  55 H55            3.6807    -6.7582    -2.4295 H       
  56 H56            3.5788    -6.2144    -4.1213 H       
  57 H57            4.9482    -5.7063    -3.1040 H       
  58 H58            1.0437    -4.1632    -2.2834 H       
  59 H59            1.2593    -5.3594    -3.5837 H       
  60 H60            1.4509    -5.8491    -1.8831 H       
  61 H61           -3.2604    -3.2983     2.9988 H       
  62 H62           -4.3809    -1.9662     3.3706 H       
  63 H63           -4.8837    -3.4967     0.7720 H       
  64 H64           -6.2072    -5.2324     2.0643 H       
  65 H65           -5.5956    -4.5175     3.6506 H       
  66 H66           -6.6609    -2.2928     3.0588 H       
  67 H67           -7.2724    -3.0077     1.4724 H       
@<TRIPOS>BOND
   1    1    2 1
   2    1    9 ar
   3    1   15 ar
   4    2    3 1
   5    2    6 2
   6    3    4 1
   7    3   16 1
   8    4    5 2
   9    4   20 1
  10    5    6 1
  11    5    7 1
  12    7    8 am
  13    7   10 2
  14    8   11 1
  15    8   33 1
  16    9   12 ar
  17    9   34 1
  18   11   21 1
  19   11   23 1
  20   11   35 1
  21   12   13 ar
  22   12   36 1
  23   13   14 ar
  24   13   37 1
  25   14   15 ar
  26   14   38 1
  27   15   39 1
  28   16   17 1
  29   16   40 1
  30   16   41 1
  31   17   18 1
  32   17   42 1
  33   17   43 1
  34   18   19 1
  35   18   29 1
  36   19   20 1
  37   19   44 1
  38   19   45 1
  39   20   46 1
  40   20   47 1
  41   21   26 1
  42   21   27 1
  43   21   28 1
  44   22   23 am
  45   22   24 1
  46   22   48 1
  47   23   25 2
  48   24   49 1
  49   24   50 1
  50   24   51 1
  51   26   52 1
  52   26   53 1
  53   26   54 1
  54   27   55 1
  55   27   56 1
  56   27   57 1
  57   28   58 1
  58   28   59 1
  59   28   60 1
  60   29   30 1
  61   29   61 1
  62   29   62 1
  63   30   31 1
  64   30   32 1
  65   30   63 1
  66   31   32 1
  67   31   64 1
  68   31   65 1
  69   32   66 1
  70   32   67 1

#	End of record

