#	Name: ASD03090801
#	Creating user name:	WinNT
#	Creation time:	15. 06. 2019 20:29

#	Modifying user name:	WinNT
#	Modification time:	15. 06. 2019 20:29

#	Program:	/corina/corina34_cracker 3.40 0067  02.08.2006

@<TRIPOS>MOLECULE
ASD03090801
  36   37    0    0    0
SMALL
NO_CHARGES


@<TRIPOS>ATOM
   1 C1            -0.0507     1.2753     0.2649 C.ar    
   2 N2            -0.0399    -0.0315     0.4429 N.ar    
   3 C3            -1.1488    -0.7224     0.6202 C.ar    
   4 C4            -2.3804    -0.0981     0.6266 C.ar    
   5 C5            -2.4403     1.2874     0.4415 C.ar    
   6 C6            -1.2403     1.9814     0.2623 C.ar    
   7 C7            -3.7386     1.9995     0.4408 C.2     
   8 N8            -3.7747     3.3347     0.2607 N.am    
   9 C9            -4.9564     3.9829     0.2601 C.2     
  10 N10           -4.9925     5.3181     0.0801 N.am    
  11 C11           -6.2221     5.9786    -0.0098 C.ar    
  12 C12           -7.2338     5.6909     0.8976 C.ar    
  13 C13           -8.6602     7.2861    -0.1845 C.ar    
  14 C14           -6.4306     6.9263    -1.0020 C.ar    
  15 C15           -8.4498     6.3445     0.8083 C.ar    
  16 S16           -6.4115     3.1102     0.4880 S.2     
  17 O17           -4.7712     1.3803     0.6025 O.2     
  18 C18           -1.0711    -2.2143     0.8180 C.3     
  19 Cl19           1.4481     2.1213     0.0379 Cl      
  20 C20           -7.6501     7.5801    -1.0888 C.ar    
  21 O21           -7.8580     8.5042    -2.0632 O.3     
  22 F22           -9.4333     6.0632     1.6908 F       
  23 C23           -9.1403     9.1339    -2.0972 C.3     
  24 H24           -3.2843    -0.6709     0.7720 H       
  25 H25           -1.2424     3.0516     0.1166 H       
  26 H26           -2.9503     3.8292     0.1316 H       
  27 H27           -4.1658     5.8210     0.0128 H       
  28 H28           -7.0711     4.9566     1.6726 H       
  29 H29           -9.6101     7.7956    -0.2523 H       
  30 H30           -5.6436     7.1545    -1.7056 H       
  31 H31           -0.9764    -2.4354     1.8812 H       
  32 H32           -1.9767    -2.6801     0.4293 H       
  33 H33           -0.2040    -2.6066     0.2867 H       
  34 H34           -9.9125     8.3781    -2.2407 H       
  35 H35           -9.3136     9.6563    -1.1563 H       
  36 H36           -9.1729     9.8476    -2.9204 H       
@<TRIPOS>BOND
   1    1    2 ar
   2    1   19 1
   3    1    6 ar
   4    2    3 ar
   5    3    4 ar
   6    3   18 1
   7    4    5 ar
   8    4   24 1
   9    5    6 ar
  10    5    7 1
  11    6   25 1
  12    7    8 am
  13    7   17 2
  14    8    9 am
  15    8   26 1
  16    9   10 am
  17    9   16 2
  18   10   11 1
  19   10   27 1
  20   11   12 ar
  21   11   14 ar
  22   12   15 ar
  23   12   28 1
  24   13   20 ar
  25   13   15 ar
  26   13   29 1
  27   14   20 ar
  28   14   30 1
  29   15   22 1
  30   18   31 1
  31   18   32 1
  32   18   33 1
  33   20   21 1
  34   21   23 1
  35   23   34 1
  36   23   35 1
  37   23   36 1

#	End of record

