#	Name: ASD01120275
#	Creating user name:	WinNT
#	Creation time:	15. 06. 2019 18:59

#	Modifying user name:	WinNT
#	Modification time:	15. 06. 2019 18:59

#	Program:	/corina/corina34_cracker 3.40 0067  02.08.2006

@<TRIPOS>MOLECULE
ASD01120275
  31   33    0    0    0
SMALL
NO_CHARGES


@<TRIPOS>ATOM
   1 O1            -0.0162     1.3449     0.0094 O.3     
   2 C2             0.0021    -0.0041     0.0020 C.2     
   3 O3             1.0634    -0.5978    -0.0113 O.2     
   4 C4            -1.2568    -0.7539     0.0100 C.2     
   5 N5            -2.5200    -0.1990     0.0246 N.pl3   
   6 C6            -3.4721    -1.1908     0.0277 C.ar    
   7 C7            -2.8079    -2.4310     0.0147 C.ar    
   8 C8            -1.3709    -2.1329    -0.0019 C.2     
   9 C9            -0.2630    -3.1132    -0.0200 C.ar    
  10 C10            0.5862    -3.1907    -1.1249 C.ar    
  11 C11            1.6177    -4.1067    -1.1353 C.ar    
  12 C12            1.8113    -4.9474    -0.0536 C.ar    
  13 C13            0.9727    -4.8760     1.0446 C.ar    
  14 C14           -0.0590    -3.9605     1.0701 C.ar    
  15 C15           -3.5454    -3.6178     0.0148 C.ar    
  16 C16           -4.9100    -3.5689     0.0274 C.ar    
  17 C17           -5.5716    -2.3476     0.0398 C.ar    
  18 C18           -4.8654    -1.1660     0.0404 C.ar    
  19 N19           -5.5843     0.1279     0.0542 N.pl3   
  20 O20           -6.8021     0.1479     0.0649 O.2     
  21 O21           -4.9581     1.1725     0.0547 O.2     
  22 H22            0.8617     1.7502     0.0032 H       
  23 H23           -2.7088     0.7524     0.0319 H       
  24 H24            0.4359    -2.5352    -1.9700 H       
  25 H25            2.2753    -4.1680    -1.9898 H       
  26 H26            2.6203    -5.6628    -0.0667 H       
  27 H27            1.1289    -5.5353     1.8857 H       
  28 H28           -0.7129    -3.9056     1.9279 H       
  29 H29           -3.0377    -4.5709     0.0045 H       
  30 H30           -5.4792    -4.4867     0.0275 H       
  31 H31           -6.6513    -2.3248     0.0490 H       
@<TRIPOS>BOND
   1    1    2 1
   2    1   22 1
   3    2    3 2
   4    2    4 1
   5    4    5 1
   6    4    8 2
   7    5    6 1
   8    5   23 1
   9    6    7 ar
  10    6   18 ar
  11    7    8 1
  12    7   15 ar
  13    8    9 1
  14    9   10 ar
  15    9   14 ar
  16   10   11 ar
  17   10   24 1
  18   11   12 ar
  19   11   25 1
  20   12   13 ar
  21   12   26 1
  22   13   14 ar
  23   13   27 1
  24   14   28 1
  25   15   16 ar
  26   15   29 1
  27   16   17 ar
  28   16   30 1
  29   17   18 ar
  30   17   31 1
  31   18   19 1
  32   19   20 2
  33   19   21 2

#	End of record

