#	Name: ASD05130084
#	Creating user name:	WinNT
#	Creation time:	15. 06. 2019 20:56

#	Modifying user name:	WinNT
#	Modification time:	15. 06. 2019 20:56

#	Program:	/corina/corina34_cracker 3.40 0067  02.08.2006

@<TRIPOS>MOLECULE
ASD05130084
  57   60    0    0    0
SMALL
NO_CHARGES


@<TRIPOS>ATOM
   1 N1            -0.2023     1.4013    -0.5375 N.am    
   2 C2            -0.0720     0.0616    -0.6046 C.2     
   3 O3             0.8436    -0.4294    -1.2363 O.2     
   4 N4            -0.9567    -0.7340     0.0286 N.am    
   5 C5            -0.8785    -2.1248    -0.1188 C.ar    
   6 C6            -2.0416    -2.8888    -0.1431 C.ar    
   7 C7            -1.9678    -4.2628    -0.2881 C.ar    
   8 C8            -0.7403    -4.8830    -0.4093 C.ar    
   9 C9             0.4298    -4.1248    -0.3859 C.ar    
  10 C10            0.3563    -2.7397    -0.2461 C.ar    
  11 C11           -0.6649    -6.3799    -0.5665 C.3     
  12 F12           -3.2455    -2.2873    -0.0245 F       
  13 N13            3.6952    -5.3081    -1.8892 N.am    
  14 C14            2.4962    -4.7045    -1.7711 C.2     
  15 C15            1.7479    -4.7893    -0.5149 C.2     
  16 C16            2.2742    -5.4855     0.5388 C.2     
  17 C17            3.5349    -6.1106     0.3901 C.ar    
  18 C18            4.1109    -6.8337     1.4420 C.ar    
  19 N19            5.2835    -7.4086     1.2872 N.ar    
  20 C20            5.9644    -7.3332     0.1485 C.ar    
  21 C21            5.4667    -6.6373    -0.9440 C.ar    
  22 C22            4.2312    -6.0101    -0.8343 C.ar    
  23 O23            2.0329    -4.0861    -2.7128 O.2     
  24 N24            7.1969    -7.9621     0.0502 N.pl3   
  25 C25            7.9595    -7.8881    -1.1984 C.3     
  26 C26            4.4313    -5.2207    -3.1528 C.3     
  27 C27            5.3381    -3.9885    -3.1306 C.3     
  28 C28            0.7631     2.2290    -1.1246 C.ar    
  29 C29            0.9605     3.5190    -0.6436 C.ar    
  30 C30            1.9145     4.3337    -1.2247 C.ar    
  31 C31            2.6719     3.8673    -2.2837 C.ar    
  32 C32            2.4778     2.5837    -2.7648 C.ar    
  33 C33            1.5283     1.7617    -2.1834 C.ar    
  34 F34            3.2192     2.1315    -3.7997 F       
  35 F35            0.2204     3.9757     0.3903 F       
  36 H36           -0.9667     1.7923    -0.0862 H       
  37 H37           -1.6476    -0.3435     0.5864 H       
  38 H38           -2.8729    -4.8518    -0.3061 H       
  39 H39            1.2597    -2.1481    -0.2322 H       
  40 H40           -0.6946    -6.6360    -1.6256 H       
  41 H41            0.2652    -6.7446    -0.1304 H       
  42 H42           -1.5106    -6.8418    -0.0571 H       
  43 H43            1.7347    -5.5568     1.4717 H       
  44 H44            3.5902    -6.9192     2.3843 H       
  45 H45            6.0302    -6.5833    -1.8637 H       
  46 H46            7.5539    -8.4509     0.8083 H       
  47 H47            8.1767    -6.8454    -1.4302 H       
  48 H48            8.8942    -8.4377    -1.0865 H       
  49 H49            7.3752    -8.3261    -2.0076 H       
  50 H50            5.0387    -6.1165    -3.2822 H       
  51 H51            3.7257    -5.1376    -3.9794 H       
  52 H52            5.8858    -3.9235    -4.0708 H       
  53 H53            4.7307    -3.0927    -3.0013 H       
  54 H54            6.0437    -4.0715    -2.3040 H       
  55 H55            2.0681     5.3354    -0.8515 H       
  56 H56            3.4161     4.5058    -2.7365 H       
  57 H57            1.3803     0.7589    -2.5561 H       
@<TRIPOS>BOND
   1    1    2 am
   2    1   28 1
   3    1   36 1
   4    2    3 2
   5    2    4 am
   6    4    5 1
   7    4   37 1
   8    5    6 ar
   9    5   10 ar
  10    6    7 ar
  11    6   12 1
  12    7    8 ar
  13    7   38 1
  14    8    9 ar
  15    8   11 1
  16    9   10 ar
  17    9   15 1
  18   10   39 1
  19   11   40 1
  20   11   41 1
  21   11   42 1
  22   13   14 am
  23   13   22 1
  24   13   26 1
  25   14   15 1
  26   14   23 2
  27   15   16 2
  28   16   17 1
  29   16   43 1
  30   17   18 ar
  31   17   22 ar
  32   18   19 ar
  33   18   44 1
  34   19   20 ar
  35   20   21 ar
  36   20   24 1
  37   21   22 ar
  38   21   45 1
  39   24   25 1
  40   24   46 1
  41   25   47 1
  42   25   48 1
  43   25   49 1
  44   26   27 1
  45   26   50 1
  46   26   51 1
  47   27   52 1
  48   27   53 1
  49   27   54 1
  50   28   29 ar
  51   28   33 ar
  52   29   30 ar
  53   29   35 1
  54   30   31 ar
  55   30   55 1
  56   31   32 ar
  57   31   56 1
  58   32   33 ar
  59   32   34 1
  60   33   57 1

#	End of record

