#	Name: ASD01200160
#	Creating user name:	WinNT
#	Creation time:	15. 06. 2019 19:08

#	Modifying user name:	WinNT
#	Modification time:	15. 06. 2019 19:08

#	Program:	/corina/corina34_cracker 3.40 0067  02.08.2006

@<TRIPOS>MOLECULE
ASD01200160
  56   59    0    0    0
SMALL
NO_CHARGES


@<TRIPOS>ATOM
   1 C1             0.0951     1.6121     0.1197 C.ar    
   2 C2             0.0283     0.2303     0.1332 C.ar    
   3 C3             1.1892    -0.5236     0.0851 C.ar    
   4 C4             2.4124     0.1021     0.0237 C.ar    
   5 C5             2.4915     1.4969     0.0095 C.ar    
   6 C6             3.8312    -0.4061    -0.0377 C.3     
   7 N7             4.6912     0.7818    -0.0863 N.am    
   8 C8             3.9150     1.8789    -0.0589 C.2     
   9 O9             4.3269     3.0221    -0.0864 O.2     
  10 O10            4.1268    -1.1791     1.1272 O.3     
  11 C11            6.1547     0.7734    -0.1531 C.3     
  12 C12            6.5912     0.6356    -1.5889 C.ar    
  13 C13            3.9174    -0.4810     2.3565 C.3     
  14 C14            4.1422    -1.4212     3.5126 C.2     
  15 O15            4.4511    -2.5752     3.3044 O.2     
  16 N16            3.9998    -0.9794     4.7779 N.am    
  17 C17            4.3092    -1.8146     5.8443 C.ar    
  18 N18            4.8489    -3.0020     5.6088 N.ar    
  19 C19            5.1587    -3.8266     6.5873 C.ar    
  20 C20            4.9239    -3.4692     7.9164 C.ar    
  21 C21            4.3532    -2.2176     8.1943 C.ar    
  22 C22            4.0529    -1.3897     7.1457 C.ar    
  23 C23            6.7930     1.7641    -2.3613 C.ar    
  24 C24            7.1933     1.6376    -3.6784 C.ar    
  25 C25            7.3923     0.3827    -4.2229 C.ar    
  26 C26            7.1914    -0.7458    -3.4501 C.ar    
  27 C27            6.7953    -0.6192    -2.1318 C.ar    
  28 C28            1.3172     2.2498     0.0582 C.ar    
  29 C29           -1.3114    -0.4565     0.2010 C.3     
  30 C30            5.2701    -4.3935     9.0122 C.2     
  31 O31            5.8172    -5.5931     8.7341 O.3     
  32 O32            5.0620    -4.0734    10.1656 O.2     
  33 C33            6.1323    -6.4513     9.8622 C.3     
  34 H34           -0.8139     2.1944     0.1529 H       
  35 H35            1.1340    -1.6022     0.0961 H       
  36 H36            3.9745    -1.0092    -0.9343 H       
  37 H37            6.5424     1.7061     0.2566 H       
  38 H38            6.5400    -0.0658     0.4260 H       
  39 H39            4.6166     0.3524     2.4247 H       
  40 H40            2.8960    -0.1020     2.3896 H       
  41 H41            3.6813    -0.0784     4.9441 H       
  42 H42            5.5974    -4.7870     6.3601 H       
  43 H43            4.1595    -1.9125     9.2120 H       
  44 H44            3.6132    -0.4198     7.3257 H       
  45 H45            6.6375     2.7445    -1.9360 H       
  46 H46            7.3503     2.5193    -4.2821 H       
  47 H47            7.7045     0.2839    -5.2520 H       
  48 H48            7.3466    -1.7262    -3.8756 H       
  49 H49            6.6383    -1.5008    -1.5281 H       
  50 H50            1.3649     3.3287     0.0475 H       
  51 H51           -1.6824    -0.6298    -0.8092 H       
  52 H52           -1.2050    -1.4104     0.7176 H       
  53 H53           -2.0159     0.1739     0.7435 H       
  54 H54            6.8464    -5.9476    10.5136 H       
  55 H55            5.2211    -6.6672    10.4201 H       
  56 H56            6.5658    -7.3833     9.4997 H       
@<TRIPOS>BOND
   1    1    2 ar
   2    1   28 ar
   3    1   34 1
   4    2    3 ar
   5    2   29 1
   6    3    4 ar
   7    3   35 1
   8    4    5 ar
   9    4    6 1
  10    5   28 ar
  11    5    8 1
  12    6    7 1
  13    6   10 1
  14    6   36 1
  15    7    8 am
  16    7   11 1
  17    8    9 2
  18   10   13 1
  19   11   12 1
  20   11   37 1
  21   11   38 1
  22   12   23 ar
  23   12   27 ar
  24   13   14 1
  25   13   39 1
  26   13   40 1
  27   14   15 2
  28   14   16 am
  29   16   17 1
  30   16   41 1
  31   17   18 ar
  32   17   22 ar
  33   18   19 ar
  34   19   20 ar
  35   19   42 1
  36   20   21 ar
  37   20   30 1
  38   21   22 ar
  39   21   43 1
  40   22   44 1
  41   23   24 ar
  42   23   45 1
  43   24   25 ar
  44   24   46 1
  45   25   26 ar
  46   25   47 1
  47   26   27 ar
  48   26   48 1
  49   27   49 1
  50   28   50 1
  51   29   51 1
  52   29   52 1
  53   29   53 1
  54   30   31 1
  55   30   32 2
  56   31   33 1
  57   33   54 1
  58   33   55 1
  59   33   56 1

#	End of record

