#	Name: ASD04882259
#	Creating user name:	WinNT
#	Creation time:	15. 06. 2019 20:54

#	Modifying user name:	WinNT
#	Modification time:	15. 06. 2019 20:54

#	Program:	/corina/corina34_cracker 3.40 0067  02.08.2006

@<TRIPOS>MOLECULE
ASD04882259
  83   87    0    0    0
SMALL
NO_CHARGES


@<TRIPOS>ATOM
   1 N1            -0.1369     1.5564    -0.0347 N.am    
   2 C2            -0.0772     0.1564    -0.0449 C.ar    
   3 C3            -1.2537    -0.5943     0.0291 C.ar    
   4 C4            -1.1961    -1.9833     0.0186 C.ar    
   5 C5             0.0199    -2.6245    -0.0643 C.ar    
   6 C6             1.2003    -1.8798    -0.1385 C.ar    
   7 C7             1.1447    -0.4831    -0.1339 C.ar    
   8 N8            -2.4854     0.0499     0.1139 N.3     
   9 C9            -2.6126     0.7778     1.3841 C.3     
  10 C10           -3.5910    -0.9031    -0.0568 C.3     
  11 C11           -4.9210    -0.1462    -0.0367 C.3     
  12 N12           -5.0483     0.5818     1.2336 N.3     
  13 C13           -3.9427     1.5347     1.4042 C.3     
  14 C14            2.5029    -2.5669    -0.2267 C.2     
  15 O15            3.5293    -1.9181    -0.2913 O.2     
  16 C16           -6.3476     1.2613     1.3231 C.3     
  17 C17           -7.4484     0.2341     1.3867 C.ar    
  18 C18            0.8442     2.2684     0.5543 C.2     
  19 C19            0.8474     3.7388     0.4574 C.2     
  20 O20            1.7270     1.6973     1.1658 O.2     
  21 C21           -0.0632     4.5249    -0.1861 C.2     
  22 C22            1.8291     4.6657     1.0394 C.2     
  23 C23            1.4250     5.8970     0.6918 C.2     
  24 O24            0.3009     5.8021    -0.0354 O.3     
  25 N25            2.5551    -3.9136    -0.2357 N.am    
  26 C26            3.8486    -4.5959    -0.3233 C.3     
  27 C27            3.6281    -6.1099    -0.3151 C.3     
  28 C28            2.1198     7.1819     1.0626 C.3     
  29 C29            4.9790    -6.8225    -0.4066 C.3     
  30 N30            4.7679    -8.2721    -0.3988 N.am    
  31 C31            4.5865    -9.0182    -1.5021 C.2     
  32 C32            4.3894   -10.4692    -1.1225 C.3     
  33 C33            4.0641   -10.4250     0.3885 C.3     
  34 C34            4.7335    -9.0974     0.8144 C.3     
  35 O35            4.5812    -8.5901    -2.6369 O.2     
  36 C36           -4.0966     2.2609     2.7421 C.3     
  37 C37           -8.1708    -0.0759     0.2499 C.ar    
  38 C38           -9.1808    -1.0183     0.3083 C.ar    
  39 C39           -9.4677    -1.6507     1.5033 C.ar    
  40 C40           -8.7445    -1.3412     2.6402 C.ar    
  41 C41           -7.7319    -0.4023     2.5809 C.ar    
  42 C42           -6.9436    -0.0650     3.8201 C.3     
  43 F43           -7.4170    -0.8248     4.8952 F       
  44 F44           -5.5914    -0.3527     3.6054 F       
  45 F45           -7.0904     1.2957     4.1103 F       
  46 H46           -0.8823     2.0131    -0.4550 H       
  47 H47           -2.1069    -2.5608     0.0758 H       
  48 H48            0.0614    -3.7037    -0.0715 H       
  49 H49            2.0552     0.0949    -0.1915 H       
  50 H50           -2.5842     0.0705     2.2130 H       
  51 H51           -1.7897     1.4859     1.4815 H       
  52 H52           -3.4813    -1.4204    -1.0099 H       
  53 H53           -3.5736    -1.6295     0.7558 H       
  54 H54           -4.9495     0.5611    -0.8655 H       
  55 H55           -5.7440    -0.8543    -0.1340 H       
  56 H56           -3.9600     2.2611     0.5917 H       
  57 H57           -6.3739     1.8782     2.2213 H       
  58 H58           -6.4891     1.8917     0.4452 H       
  59 H59           -0.9305     4.1746    -0.7261 H       
  60 H60            2.6979     4.4081     1.6271 H       
  61 H61            1.7363    -4.4311    -0.1842 H       
  62 H62            4.3501    -4.3067    -1.2469 H       
  63 H63            4.4665    -4.3141     0.5293 H       
  64 H64            3.1266    -6.3990     0.6084 H       
  65 H65            3.0102    -6.3917    -1.1677 H       
  66 H66            2.8507     7.4345     0.2945 H       
  67 H67            1.3847     7.9827     1.1420 H       
  68 H68            2.6266     7.0578     2.0196 H       
  69 H69            5.4805    -6.5333    -1.3301 H       
  70 H70            5.5969    -6.5407     0.4460 H       
  71 H71            3.5571   -10.8996    -1.6795 H       
  72 H72            5.3026   -11.0373    -1.2997 H       
  73 H73            2.9873   -10.3945     0.5550 H       
  74 H74            4.5140   -11.2703     0.9093 H       
  75 H75            5.7434    -9.2843     1.1795 H       
  76 H76            4.1387    -8.6048     1.5835 H       
  77 H77           -4.0782     1.5341     3.5542 H       
  78 H78           -3.2764     2.9676     2.8683 H       
  79 H79           -5.0448     2.7983     2.7568 H       
  80 H80           -7.9466     0.4182    -0.6839 H       
  81 H81           -9.7458    -1.2600    -0.5799 H       
  82 H82          -10.2571    -2.3863     1.5491 H       
  83 H83           -8.9689    -1.8351     3.5741 H       
@<TRIPOS>BOND
   1    1    2 1
   2    1   18 am
   3    1   46 1
   4    2    3 ar
   5    2    7 ar
   6    3    4 ar
   7    3    8 1
   8    4    5 ar
   9    4   47 1
  10    5    6 ar
  11    5   48 1
  12    6    7 ar
  13    6   14 1
  14    7   49 1
  15    8    9 1
  16    8   10 1
  17    9   13 1
  18    9   50 1
  19    9   51 1
  20   10   11 1
  21   10   52 1
  22   10   53 1
  23   11   12 1
  24   11   54 1
  25   11   55 1
  26   12   13 1
  27   12   16 1
  28   13   36 1
  29   13   56 1
  30   14   15 2
  31   14   25 am
  32   16   17 1
  33   16   57 1
  34   16   58 1
  35   17   37 ar
  36   17   41 ar
  37   18   20 2
  38   18   19 1
  39   19   21 2
  40   19   22 1
  41   21   24 1
  42   21   59 1
  43   22   23 2
  44   22   60 1
  45   23   24 1
  46   23   28 1
  47   25   26 1
  48   25   61 1
  49   26   27 1
  50   26   62 1
  51   26   63 1
  52   27   29 1
  53   27   64 1
  54   27   65 1
  55   28   66 1
  56   28   67 1
  57   28   68 1
  58   29   30 1
  59   29   69 1
  60   29   70 1
  61   30   31 am
  62   30   34 1
  63   31   32 1
  64   31   35 2
  65   32   33 1
  66   32   71 1
  67   32   72 1
  68   33   34 1
  69   33   73 1
  70   33   74 1
  71   34   75 1
  72   34   76 1
  73   36   77 1
  74   36   78 1
  75   36   79 1
  76   37   38 ar
  77   37   80 1
  78   38   39 ar
  79   38   81 1
  80   39   40 ar
  81   39   82 1
  82   40   41 ar
  83   40   83 1
  84   41   42 1
  85   42   43 1
  86   42   44 1
  87   42   45 1

#	End of record

