#	Name: ASD05143274
#	Creating user name:	WinNT
#	Creation time:	15. 06. 2019 20:57

#	Modifying user name:	WinNT
#	Modification time:	15. 06. 2019 20:57

#	Program:	/corina/corina34_cracker 3.40 0067  02.08.2006

@<TRIPOS>MOLECULE
ASD05143274
  44   46    0    0    0
SMALL
NO_CHARGES


@<TRIPOS>ATOM
   1 C1             0.3398     1.2348     0.2626 C.2     
   2 N2             0.3413    -0.0318    -0.1034 N.2     
   3 S3            -1.2935    -0.4862    -0.1950 S.3     
   4 C4            -1.8973     1.0595     0.2663 C.2     
   5 N5            -0.8320     1.8053     0.4612 N.2     
   6 N6            -3.2205     1.4348     0.4069 N.pl3   
   7 C7            -3.5385     2.7066     0.8917 C.ar    
   8 C8            -4.8577     3.0307     1.1835 C.ar    
   9 C9            -5.1684     4.2880     1.6623 C.ar    
  10 C10           -4.1682     5.2245     1.8511 C.ar    
  11 C11           -2.8544     4.9054     1.5612 C.ar    
  12 C12           -2.5358     3.6473     1.0883 C.ar    
  13 C13            1.4354    -0.8193    -0.3576 C.ar    
  14 C14            1.6243    -2.0068     0.3514 C.ar    
  15 C15            2.3618    -0.4394    -1.3302 C.ar    
  16 C16            3.4599    -1.2359    -1.5808 C.ar    
  17 C17            3.6442    -2.4089    -0.8705 C.ar    
  18 C18            2.7268    -2.7941     0.0910 C.ar    
  19 C19            1.6038     1.9848     0.4491 C.ar    
  20 C20            1.6557     3.3499     0.1689 C.ar    
  21 C21            2.7449     1.3295     0.9109 C.ar    
  22 C22            3.9193     2.0334     1.0825 C.ar    
  23 C23            3.9660     3.3864     0.7980 C.ar    
  24 C24            2.8359     4.0430     0.3445 C.ar    
  25 C25           -5.9482     2.0113     0.9772 C.3     
  26 H26           -3.9282     0.8155     0.1690 H       
  27 H27           -6.1936     4.5406     1.8893 H       
  28 H28           -4.4139     6.2073     2.2253 H       
  29 H29           -2.0758     5.6391     1.7094 H       
  30 H30           -1.5094     3.3986     0.8624 H       
  31 H31            0.9091    -2.3084     1.1024 H       
  32 H32            2.2189     0.4757    -1.8856 H       
  33 H33            4.1772    -0.9434    -2.3334 H       
  34 H34            4.5056    -3.0289    -1.0706 H       
  35 H35            2.8765    -3.7109     0.6419 H       
  36 H36            0.7741     3.8635    -0.1851 H       
  37 H37            2.7095     0.2734     1.1341 H       
  38 H38            4.8037     1.5270     1.4401 H       
  39 H39            4.8873     3.9332     0.9345 H       
  40 H40            2.8784     5.0994     0.1240 H       
  41 H41           -6.0804     1.4308     1.8903 H       
  42 H42           -6.8802     2.5208     0.7325 H       
  43 H43           -5.6729     1.3450     0.1597 H       
  44 Br44           9.8873    11.2073     7.2253 Br      
@<TRIPOS>BOND
   1    1    2 2
   2    1   19 1
   3    1    5 1
   4    2    3 1
   5    2   13 1
   6    3    4 1
   7    4    5 2
   8    4    6 1
   9    6    7 1
  10    6   26 1
  11    7    8 ar
  12    7   12 ar
  13    8    9 ar
  14    8   25 1
  15    9   10 ar
  16    9   27 1
  17   10   11 ar
  18   10   28 1
  19   11   12 ar
  20   11   29 1
  21   12   30 1
  22   13   14 ar
  23   13   15 ar
  24   14   18 ar
  25   14   31 1
  26   15   16 ar
  27   15   32 1
  28   16   17 ar
  29   16   33 1
  30   17   18 ar
  31   17   34 1
  32   18   35 1
  33   19   20 ar
  34   19   21 ar
  35   20   24 ar
  36   20   36 1
  37   21   22 ar
  38   21   37 1
  39   22   23 ar
  40   22   38 1
  41   23   24 ar
  42   23   39 1
  43   24   40 1
  44   25   41 1
  45   25   42 1
  46   25   43 1

#	End of record

