#	Name: ASD07300522
#	Creating user name:	WinNT
#	Creation time:	15. 06. 2019 21:09

#	Modifying user name:	WinNT
#	Modification time:	15. 06. 2019 21:09

#	Program:	/corina/corina34_cracker 3.40 0067  02.08.2006

@<TRIPOS>MOLECULE
ASD07300522
  29   31    0    0    0
SMALL
NO_CHARGES


@<TRIPOS>ATOM
   1 C1            -0.0233     1.2987     0.1012 C.2     
   2 N2             1.2024     1.7532     0.1816 N.2     
   3 C3             2.0717     0.7114     0.2534 C.ar    
   4 C4             1.3084    -0.4675     0.2130 C.ar    
   5 N5            -0.0140    -0.0669     0.1166 N.pl3   
   6 C6             3.4625     0.6269     0.3511 C.ar    
   7 C7             4.0705    -0.6076     0.4068 C.ar    
   8 C8             3.3124    -1.7680     0.3661 C.ar    
   9 C9             1.9373    -1.7015     0.2705 C.ar    
  10 N10           -1.1561     2.0830     0.0191 N.pl3   
  11 C11           -1.0537     3.4728     0.1311 C.ar    
  12 C12           -1.9534     4.2932    -0.5373 C.ar    
  13 C13           -1.8498     5.6657    -0.4241 C.ar    
  14 C14           -0.8516     6.2234     0.3537 C.ar    
  15 C15            0.0459     5.4095     1.0204 C.ar    
  16 C16           -0.0554     4.0362     0.9157 C.ar    
  17 N17           -0.7431     7.6949     0.4723 N.pl3   
  18 O18           -1.5326     8.4130    -0.1147 O.2     
  19 O19            0.1355     8.1876     1.1570 O.2     
  20 H20           -0.7892    -0.6481     0.0694 H       
  21 H21            4.0591     1.5266     0.3826 H       
  22 H22            5.1459    -0.6724     0.4824 H       
  23 H23            3.8012    -2.7300     0.4102 H       
  24 H24            1.3524    -2.6090     0.2400 H       
  25 H25           -2.0232     1.6699    -0.1164 H       
  26 H26           -2.7330     3.8582    -1.1451 H       
  27 H27           -2.5488     6.3041    -0.9438 H       
  28 H28            0.8243     5.8483     1.6270 H       
  29 H29            0.6432     3.4010     1.4400 H       
@<TRIPOS>BOND
   1    1    2 2
   2    1    5 1
   3    1   10 1
   4    2    3 1
   5    3    4 ar
   6    3    6 ar
   7    4    5 1
   8    4    9 ar
   9    5   20 1
  10    6    7 ar
  11    6   21 1
  12    7    8 ar
  13    7   22 1
  14    8    9 ar
  15    8   23 1
  16    9   24 1
  17   10   11 1
  18   10   25 1
  19   11   12 ar
  20   11   16 ar
  21   12   13 ar
  22   12   26 1
  23   13   14 ar
  24   13   27 1
  25   14   15 ar
  26   14   17 1
  27   15   16 ar
  28   15   28 1
  29   16   29 1
  30   17   18 2
  31   17   19 2

#	End of record

