#	Name: ASD02198087
#	Creating user name:	WinNT
#	Creation time:	15. 06. 2019 20:18

#	Modifying user name:	WinNT
#	Modification time:	15. 06. 2019 20:18

#	Program:	/corina/corina34_cracker 3.40 0067  02.08.2006

@<TRIPOS>MOLECULE
ASD02198087
  48   51    0    0    0
SMALL
NO_CHARGES


@<TRIPOS>ATOM
   1 C1            -0.0164     1.3748     0.0033 C.2     
   2 C2             0.0034    -0.0034     0.0257 C.2     
   3 C3            -1.1852    -0.8006     0.0745 C.1     
   4 S4             1.5671     2.0043    -0.0545 S.3     
   5 C5             2.2765     0.3977    -0.0488 C.2     
   6 C6             1.2850    -0.5508    -0.0034 C.2     
   7 C7             3.6607     0.1225    -0.0855 C.2     
   8 C8             4.6283     1.2272    -0.1322 C.2     
   9 O9             4.0536    -1.0332    -0.0783 O.2     
  10 N10            1.5335    -1.9158     0.0125 N.pl3   
  11 N11           -1.1607     2.1397     0.0194 N.pl3   
  12 N12           -2.1281    -1.4330     0.1132 N.1     
  13 C13            5.9858     1.0828    -0.1703 C.2     
  14 C14            6.6857     2.2589    -0.2102 C.2     
  15 C15            5.9141     3.3835    -0.2056 C.2     
  16 S16            4.2144     2.9360    -0.1554 S.3     
  17 C17            6.4282     4.7677    -0.2430 C.ar    
  18 C18            5.5339     5.8392    -0.2339 C.ar    
  19 C19            6.0313     7.1299    -0.2693 C.ar    
  20 C20            7.4070     7.3092    -0.3127 C.ar    
  21 C21            8.2365     6.2022    -0.3193 C.ar    
  22 N22            7.7389     4.9835    -0.2796 N.ar    
  23 C23           -1.0705     3.5297     0.1320 C.ar    
  24 C24           -0.0740     4.1016     0.9125 C.ar    
  25 C25            0.0123     5.4758     1.0216 C.ar    
  26 C26           -0.8919     6.2819     0.3550 C.ar    
  27 C27           -1.8855     5.7157    -0.4231 C.ar    
  28 C28           -1.9740     4.3429    -0.5412 C.ar    
  29 C29           -4.2510     3.3616    -0.5060 C.3     
  30 C30           -3.0565     3.7269    -1.3895 C.3     
  31 H31            2.4464    -2.2429    -0.0090 H       
  32 H32            0.7942    -2.5430     0.0450 H       
  33 H33           -2.0297     1.7139    -0.0475 H       
  34 H34            6.4691     0.1170    -0.1686 H       
  35 H35            7.7647     2.2934    -0.2425 H       
  36 H36            4.4688     5.6634    -0.2000 H       
  37 H37            5.3639     7.9790    -0.2636 H       
  38 H38            7.8260     8.3042    -0.3414 H       
  39 H39            9.3072     6.3394    -0.3534 H       
  40 H40            0.6324     3.4725     1.4337 H       
  41 H41            0.7866     5.9211     1.6286 H       
  42 H42           -0.8225     7.3561     0.4423 H       
  43 H43           -2.5904     6.3483    -0.9422 H       
  44 H44           -3.9353     2.6478     0.2549 H       
  45 H45           -4.6347     4.2607    -0.0238 H       
  46 H46           -5.0340     2.9161    -1.1196 H       
  47 H47           -3.3722     4.4406    -2.1504 H       
  48 H48           -2.6728     2.8277    -1.8716 H       
@<TRIPOS>BOND
   1    1    2 2
   2    1    4 1
   3    1   11 1
   4    2    3 1
   5    2    6 1
   6    3   12 3
   7    4    5 1
   8    5    6 2
   9    5    7 1
  10    6   10 1
  11    7    8 1
  12    7    9 2
  13    8   13 2
  14    8   16 1
  15   10   31 1
  16   10   32 1
  17   11   23 1
  18   11   33 1
  19   13   14 1
  20   13   34 1
  21   14   15 2
  22   14   35 1
  23   15   16 1
  24   15   17 1
  25   17   18 ar
  26   17   22 ar
  27   18   19 ar
  28   18   36 1
  29   19   20 ar
  30   19   37 1
  31   20   21 ar
  32   20   38 1
  33   21   22 ar
  34   21   39 1
  35   23   24 ar
  36   23   28 ar
  37   24   25 ar
  38   24   40 1
  39   25   26 ar
  40   25   41 1
  41   26   27 ar
  42   26   42 1
  43   27   28 ar
  44   27   43 1
  45   28   30 1
  46   29   30 1
  47   29   44 1
  48   29   45 1
  49   29   46 1
  50   30   47 1
  51   30   48 1

#	End of record

