#	Name: ASD01884170
#	Creating user name:	WinNT
#	Creation time:	15. 06. 2019 19:47

#	Modifying user name:	WinNT
#	Modification time:	15. 06. 2019 19:47

#	Program:	/corina/corina34_cracker 3.40 0067  02.08.2006

@<TRIPOS>MOLECULE
ASD01884170
  34   37    0    0    0
SMALL
NO_CHARGES


@<TRIPOS>ATOM
   1 C1            -0.0168     1.3889     0.0097 C.ar    
   2 C2             0.0021    -0.0041     0.0020 C.ar    
   3 C3            -1.1850    -0.7054     0.0096 C.ar    
   4 C4            -2.3994     0.0015     0.0250 C.ar    
   5 C5            -2.3264     1.3980     0.0318 C.ar    
   6 N6            -1.1740     2.0387     0.0297 N.ar    
   7 N7            -3.6837    -0.5078     0.0349 N.am    
   8 C8            -4.7109     0.3472     0.0497 C.2     
   9 S9            -4.0016     1.9702     0.0514 S.3     
  10 O10           -5.8952     0.0670     0.0599 O.2     
  11 C11            1.2580     2.1468     0.0016 C.ar    
  12 C12           -3.9147    -1.9544     0.0290 C.3     
  13 C13           -3.9807    -2.4663     1.4693 C.3     
  14 C14           -4.3334    -3.9402     1.6798 C.3     
  15 C15           -2.9022    -3.4546     1.9179 C.3     
  16 F16           -1.9313    -3.8209     0.9796 F       
  17 F17           -2.4604    -3.3711     3.2426 F       
  18 C18            1.2433     3.5405     0.0092 C.ar    
  19 C19            2.4327     4.2405     0.0021 C.ar    
  20 C20            3.6585     2.1785    -0.0149 C.ar    
  21 C21            2.4753     1.4680    -0.0079 C.ar    
  22 C22            3.6378     3.5616    -0.0126 C.ar    
  23 H23            0.9436    -0.5330    -0.0102 H       
  24 H24           -1.1816    -1.7854     0.0034 H       
  25 H25           -4.8560    -2.1700    -0.4767 H       
  26 H26           -3.0984    -2.4506    -0.4960 H       
  27 H27           -4.3462    -1.7511     2.2061 H       
  28 H28           -4.9308    -4.1946     2.5553 H       
  29 H29           -4.5185    -4.5451     0.7921 H       
  30 H30            0.3030     4.0715     0.0203 H       
  31 H31            2.4225     5.3204     0.0076 H       
  32 H32            4.6023     1.6535    -0.0218 H       
  33 H33            2.4926     0.3882    -0.0093 H       
  34 H34            4.5661     4.1135    -0.0185 H       
@<TRIPOS>BOND
   1    1    2 ar
   2    1   11 1
   3    1    6 ar
   4    2    3 ar
   5    2   23 1
   6    3    4 ar
   7    3   24 1
   8    4    5 ar
   9    4    7 1
  10    5    6 ar
  11    5    9 1
  12    7    8 am
  13    7   12 1
  14    8    9 1
  15    8   10 2
  16   11   18 ar
  17   11   21 ar
  18   12   13 1
  19   12   25 1
  20   12   26 1
  21   13   14 1
  22   13   15 1
  23   13   27 1
  24   14   15 1
  25   14   28 1
  26   14   29 1
  27   15   16 1
  28   15   17 1
  29   18   19 ar
  30   18   30 1
  31   19   22 ar
  32   19   31 1
  33   20   21 ar
  34   20   22 ar
  35   20   32 1
  36   21   33 1
  37   22   34 1

#	End of record

