#	Name: ASD00069399
#	Creating user name:	WinNT
#	Creation time:	15. 06. 2019 18:29

#	Modifying user name:	WinNT
#	Modification time:	15. 06. 2019 18:29

#	Program:	/corina/corina34_cracker 3.40 0067  02.08.2006

@<TRIPOS>MOLECULE
ASD00069399
  45   47    0    0    0
SMALL
NO_CHARGES


@<TRIPOS>ATOM
   1 C1            -0.0168     1.3912     0.0097 C.ar    
   2 C2             0.0021    -0.0041     0.0020 C.ar    
   3 N3             1.1731    -0.6338    -0.0125 N.ar    
   4 C4             2.3073     0.0500    -0.0197 C.ar    
   5 N5             2.3207     1.3748    -0.0127 N.ar    
   6 C6             1.1900     2.0673     0.0018 C.ar    
   7 Cl7            1.2237     3.8029     0.0102 Cl      
   8 N8            -1.1823    -0.7230     0.0099 N.3     
   9 C9            -0.9208    -2.1685    -0.0004 C.3     
  10 C10           -2.0445    -0.3294    -1.1124 C.3     
  11 C11           -3.4098    -1.0097    -0.9663 C.3     
  12 N12           -3.1972    -2.4581    -0.8236 N.am    
  13 C13           -2.2400    -2.9242     0.1912 C.3     
  14 C14           -3.8621    -3.3348    -1.6018 C.2     
  15 O15           -4.6496    -2.9321    -2.4350 O.2     
  16 O16           -3.6538    -4.6570    -1.4560 O.3     
  17 C17           -4.0431    -6.9734    -2.0223 C.ar    
  18 C18           -4.7586    -7.6793    -1.0733 C.ar    
  19 C19           -4.4308    -8.9934    -0.7969 C.ar    
  20 C20           -3.3879    -9.6019    -1.4699 C.ar    
  21 C21           -2.6730    -8.8964    -2.4197 C.ar    
  22 C22           -2.9999    -7.5817    -2.6950 C.ar    
  23 C23           -4.4044    -5.5427    -2.3281 C.3     
  24 N24            3.5088    -0.6366    -0.0344 N.pl3   
  25 C25            4.7742     0.1015    -0.0425 C.3     
  26 H26           -0.9523     1.9309     0.0171 H       
  27 H27           -0.4752    -2.4506    -0.9543 H       
  28 H28           -0.2365    -2.4201     0.8098 H       
  29 H29           -2.1751     0.7528    -1.1086 H       
  30 H30           -1.5833    -0.6372    -2.0508 H       
  31 H31           -3.9177    -0.6253    -0.0819 H       
  32 H32           -4.0132    -0.8138    -1.8527 H       
  33 H33           -2.0701    -3.9940     0.0701 H       
  34 H34           -2.6355    -2.7238     1.1869 H       
  35 H35           -5.5734    -7.2039    -0.5474 H       
  36 H36           -4.9894    -9.5447    -0.0549 H       
  37 H37           -3.1314   -10.6285    -1.2535 H       
  38 H38           -1.8578    -9.3715    -2.9450 H       
  39 H39           -2.4409    -7.0303    -3.4365 H       
  40 H40           -5.4718    -5.3946    -2.1647 H       
  41 H41           -4.1617    -5.3208    -3.3673 H       
  42 H42            3.5130    -1.6066    -0.0393 H       
  43 H43            4.8375     0.7239     0.8501 H       
  44 H44            5.6058    -0.6031    -0.0538 H       
  45 H45            4.8209     0.7329    -0.9298 H       
@<TRIPOS>BOND
   1    1    2 ar
   2    1    6 ar
   3    1   26 1
   4    2    3 ar
   5    2    8 1
   6    3    4 ar
   7    4    5 ar
   8    4   24 1
   9    5    6 ar
  10    6    7 1
  11    8    9 1
  12    8   10 1
  13    9   13 1
  14    9   27 1
  15    9   28 1
  16   10   11 1
  17   10   29 1
  18   10   30 1
  19   11   12 1
  20   11   31 1
  21   11   32 1
  22   12   13 1
  23   12   14 am
  24   13   33 1
  25   13   34 1
  26   14   15 2
  27   14   16 1
  28   16   23 1
  29   17   18 ar
  30   17   22 ar
  31   17   23 1
  32   18   19 ar
  33   18   35 1
  34   19   20 ar
  35   19   36 1
  36   20   21 ar
  37   20   37 1
  38   21   22 ar
  39   21   38 1
  40   22   39 1
  41   23   40 1
  42   23   41 1
  43   24   25 1
  44   24   42 1
  45   25   43 1
  46   25   44 1
  47   25   45 1

#	End of record

