#	Name: ASD03540325
#	Creating user name:	WinNT
#	Creation time:	15. 06. 2019 20:43

#	Modifying user name:	WinNT
#	Modification time:	15. 06. 2019 20:43

#	Program:	/corina/corina34_cracker 3.40 0067  02.08.2006

@<TRIPOS>MOLECULE
ASD03540325
  50   54    0    0    0
SMALL
NO_CHARGES


@<TRIPOS>ATOM
   1 C1            -0.0161     1.3365     0.0094 C.2     
   2 N2             0.0021    -0.0041     0.0020 N.am    
   3 C3             1.1931    -0.7075    -0.0132 C.2     
   4 C4             2.3928    -0.0051    -0.0209 C.2     
   5 C5             2.3194     1.4734    -0.0115 C.2     
   6 N6             1.1110     2.0661     0.0025 N.am    
   7 C7             3.5129    -0.8381    -0.0361 C.2     
   8 C8             3.2256    -2.1516    -0.0404 C.2     
   9 S9             1.4874    -2.3902    -0.0250 S.3     
  10 C10            4.2183    -3.2259    -0.0565 C.2     
  11 O11            5.4048    -2.9577    -0.0671 O.2     
  12 O12            3.8179    -4.5143    -0.0595 O.3     
  13 O13            3.3358     2.1426    -0.0175 O.2     
  14 O14           -1.0880     1.9101     0.0175 O.2     
  15 C15           -1.2652    -0.7390     0.0107 C.3     
  16 C16            1.0243     3.5285     0.0113 C.3     
  17 O17            1.2246     5.3843     5.3139 O.3     
  18 C18            2.5711     5.8930     5.2771 C.3     
  19 O19            3.1964     5.1303     4.2280 O.3     
  20 C20            2.1847     4.7737     3.3840 C.ar    
  21 C21            0.9721     4.9299     4.0518 C.ar    
  22 C22            2.1971     4.3193     2.0757 C.ar    
  23 C23            1.0082     4.0223     1.4350 C.ar    
  24 C24           -0.1949     4.1777     2.0973 C.ar    
  25 C25           -0.2148     4.6304     3.4038 C.ar    
  26 C26            4.8413    -5.5116    -0.0754 C.3     
  27 C27            4.2094    -6.8798    -0.0765 C.ar    
  28 C28            3.9074    -7.5007    -1.2740 C.ar    
  29 C29            3.3277    -8.7556    -1.2750 C.ar    
  30 C30            3.0505    -9.3898    -0.0785 C.ar    
  31 C31            3.3533    -8.7693     1.1191 C.ar    
  32 C32            3.9370    -7.5162     1.1200 C.ar    
  33 H33            4.5244    -0.4597    -0.0438 H       
  34 H34           -2.0950    -0.0322     0.0228 H       
  35 H35           -1.3307    -1.3609    -0.8820 H       
  36 H36           -1.3130    -1.3705     0.8978 H       
  37 H37            1.8863     3.9467    -0.5086 H       
  38 H38            0.1095     3.8412    -0.4921 H       
  39 H39            2.5727     6.9550     5.0317 H       
  40 H40            3.0727     5.7181     6.2289 H       
  41 H41            3.1356     4.1976     1.5555 H       
  42 H42           -1.1213     3.9446     1.5936 H       
  43 H43           -1.1563     4.7503     3.9192 H       
  44 H44            5.4510    -5.3923    -0.9710 H       
  45 H45            5.4691    -5.4021     0.8089 H       
  46 H46            4.1240    -7.0051    -2.2089 H       
  47 H47            3.0911    -9.2404    -2.2107 H       
  48 H48            2.5970   -10.3700    -0.0792 H       
  49 H49            3.1364    -9.2647     2.0539 H       
  50 H50            4.1770    -7.0330     2.0556 H       
@<TRIPOS>BOND
   1    1    2 am
   2    1    6 am
   3    1   14 2
   4    2    3 1
   5    2   15 1
   6    3    4 2
   7    3    9 1
   8    4    5 1
   9    4    7 1
  10    5    6 am
  11    5   13 2
  12    6   16 1
  13    7    8 2
  14    7   33 1
  15    8    9 1
  16    8   10 1
  17   10   11 2
  18   10   12 1
  19   12   26 1
  20   15   34 1
  21   15   35 1
  22   15   36 1
  23   16   23 1
  24   16   37 1
  25   16   38 1
  26   17   18 1
  27   17   21 1
  28   18   19 1
  29   18   39 1
  30   18   40 1
  31   19   20 1
  32   20   21 ar
  33   20   22 ar
  34   21   25 ar
  35   22   23 ar
  36   22   41 1
  37   23   24 ar
  38   24   25 ar
  39   24   42 1
  40   25   43 1
  41   26   27 1
  42   26   44 1
  43   26   45 1
  44   27   28 ar
  45   27   32 ar
  46   28   29 ar
  47   28   46 1
  48   29   30 ar
  49   29   47 1
  50   30   31 ar
  51   30   48 1
  52   31   32 ar
  53   31   49 1
  54   32   50 1

#	End of record

