#	Name: ASD03430857
#	Creating user name:	WinNT
#	Creation time:	15. 06. 2019 20:41

#	Modifying user name:	WinNT
#	Modification time:	15. 06. 2019 20:41

#	Program:	/corina/corina34_cracker 3.40 0067  02.08.2006

@<TRIPOS>MOLECULE
ASD03430857
  34   38    0    0    0
SMALL
NO_CHARGES


@<TRIPOS>ATOM
   1 C1            -0.0189     1.5427     0.0105 C.3     
   2 C2             0.0021    -0.0041     0.0020 C.3     
   3 O3             1.2672    -0.3022    -0.6124 O.3     
   4 C4             2.1358     0.7193    -0.3735 C.ar    
   5 C5             1.4601     1.8754    -0.0018 C.ar    
   6 C6             3.5234     0.7430    -0.4501 C.ar    
   7 C7             4.2290     1.9066    -0.1679 C.ar    
   8 C8             3.5275     3.0561     0.1867 C.ar    
   9 C9             2.1514     3.0350     0.2722 C.ar    
  10 O10            5.5739     2.1314    -0.1678 O.3     
  11 C11            4.5519     4.1379     0.3963 C.3     
  12 C12            5.8194     3.5491    -0.2384 C.3     
  13 N13            4.1331     6.3606     0.7268 N.am    
  14 C14            4.1532     5.4329    -0.2509 C.2     
  15 C15            4.7517     4.4633     1.8469 C.ar    
  16 C16            5.1174     3.7195     2.9475 C.ar    
  17 C17            5.2179     4.3237     4.1899 C.ar    
  18 C18            4.9503     5.6735     4.3216 C.ar    
  19 C19            4.5833     6.4220     3.2221 C.ar    
  20 C20            4.4802     5.8238     1.9690 C.ar    
  21 O21            3.8993     5.6096    -1.4237 O.2     
  22 Cl22           5.4518     2.0246     2.7771 Cl      
  23 H23           -0.5130     1.9306    -0.8803 H       
  24 H24           -0.4958     1.9210     0.9147 H       
  25 H25           -0.0355    -0.3963     1.0183 H       
  26 H26           -0.8199    -0.3981    -0.5957 H       
  27 H27            4.0587    -0.1519    -0.7313 H       
  28 H28            1.6148     3.9289     0.5541 H       
  29 H29            6.7030     3.8182     0.3403 H       
  30 H30            5.9202     3.8734    -1.2742 H       
  31 H31            3.9042     7.2924     0.5845 H       
  32 H32            5.5042     3.7416     5.0535 H       
  33 H33            5.0286     6.1446     5.2903 H       
  34 H34            4.3755     7.4759     3.3338 H       
@<TRIPOS>BOND
   1    1    2 1
   2    1    5 1
   3    1   23 1
   4    1   24 1
   5    2    3 1
   6    2   25 1
   7    2   26 1
   8    3    4 1
   9    4    5 ar
  10    4    6 ar
  11    5    9 ar
  12    6    7 ar
  13    6   27 1
  14    7    8 ar
  15    7   10 1
  16    8    9 ar
  17    8   11 1
  18    9   28 1
  19   10   12 1
  20   11   12 1
  21   11   14 1
  22   11   15 1
  23   12   29 1
  24   12   30 1
  25   13   14 am
  26   13   20 1
  27   13   31 1
  28   14   21 2
  29   15   16 ar
  30   15   20 ar
  31   16   17 ar
  32   16   22 1
  33   17   18 ar
  34   17   32 1
  35   18   19 ar
  36   18   33 1
  37   19   20 ar
  38   19   34 1

#	End of record

