#	Name: ASD01100033
#	Creating user name:	WinNT
#	Creation time:	15. 06. 2019 18:58

#	Modifying user name:	WinNT
#	Modification time:	15. 06. 2019 18:58

#	Program:	/corina/corina34_cracker 3.40 0067  02.08.2006

@<TRIPOS>MOLECULE
ASD01100033
  34   35    0    0    0
SMALL
NO_CHARGES


@<TRIPOS>ATOM
   1 C1             0.1642     1.2681    -0.9031 C.ar    
   2 C2             0.2535    -0.1107    -0.9744 C.ar    
   3 C3             1.4613    -0.7388    -0.7277 C.ar    
   4 C4             2.5779     0.0114    -0.4103 C.ar    
   5 C5             2.4881     1.3890    -0.3392 C.ar    
   6 C6             1.2815     2.0172    -0.5856 C.ar    
   7 C7             3.7058     2.2064     0.0074 C.3     
   8 C8             3.4371     3.0056     1.2840 C.3     
   9 C9             3.2206     2.0423     2.4528 C.3     
  10 C10            4.6358     3.9083     1.5825 C.3     
  11 Cl11          -1.1495    -1.0523    -1.3726 Cl      
  12 C12            4.0132     3.1541    -1.1233 C.2     
  13 N13            5.1593     3.8633    -1.1154 N.am    
  14 O14            3.2293     3.2786    -2.0402 O.2     
  15 C15            5.4065     4.8004    -2.1188 C.2     
  16 N16            6.4653     5.5570    -2.2423 N.2     
  17 O17            6.3893     6.2692    -3.2165 O.3     
  18 C18            5.2432     6.0758    -3.8850 C.2     
  19 C19            4.5611     5.1195    -3.2145 C.2     
  20 H20           -0.7773     1.7593    -1.0999 H       
  21 H21            1.5315    -1.8151    -0.7828 H       
  22 H22            3.5207    -0.4788    -0.2174 H       
  23 H23            1.2119     3.0935    -0.5300 H       
  24 H24            4.5557     1.5426     0.1664 H       
  25 H25            2.5458     3.6183     1.1483 H       
  26 H26            4.1118     1.4296     2.5885 H       
  27 H27            3.0291     2.6117     3.3623 H       
  28 H28            2.3666     1.3992     2.2402 H       
  29 H29            4.8540     4.5231     0.7092 H       
  30 H30            4.4037     4.5518     2.4310 H       
  31 H31            5.5038     3.2931     1.8197 H       
  32 H32            5.8122     3.7221    -0.4121 H       
  33 H33            4.9282     6.5816    -4.7857 H       
  34 H34            3.5948     4.7005    -3.4532 H       
@<TRIPOS>BOND
   1    1    2 ar
   2    1    6 ar
   3    1   20 1
   4    2    3 ar
   5    2   11 1
   6    3    4 ar
   7    3   21 1
   8    4    5 ar
   9    4   22 1
  10    5    6 ar
  11    5    7 1
  12    6   23 1
  13    7    8 1
  14    7   12 1
  15    7   24 1
  16    8    9 1
  17    8   10 1
  18    8   25 1
  19    9   26 1
  20    9   27 1
  21    9   28 1
  22   10   29 1
  23   10   30 1
  24   10   31 1
  25   12   13 am
  26   12   14 2
  27   13   15 1
  28   13   32 1
  29   15   16 2
  30   15   19 1
  31   16   17 1
  32   17   18 1
  33   18   19 2
  34   18   33 1
  35   19   34 1

#	End of record

