#	Name: ASD05740002
#	Creating user name:	WinNT
#	Creation time:	15. 06. 2019 21:02

#	Modifying user name:	WinNT
#	Modification time:	15. 06. 2019 21:02

#	Program:	/corina/corina34_cracker 3.40 0067  02.08.2006

@<TRIPOS>MOLECULE
ASD05740002
  55   56    0    0    0
SMALL
NO_CHARGES


@<TRIPOS>ATOM
   1 C1            -0.2545     1.1012    -0.6011 C.ar    
   2 C2            -0.3188    -0.2907    -0.6298 C.ar    
   3 C3            -1.5179    -0.9300    -0.5043 C.ar    
   4 C4            -2.6909    -0.1831    -0.3453 C.ar    
   5 C5            -2.6323     1.2226    -0.3151 C.ar    
   6 C6            -1.4048     1.8558    -0.4392 C.ar    
   7 C7            -3.9915    -0.8421    -0.2088 C.2     
   8 C8            -5.0934    -0.0621    -0.0578 C.2     
   9 C9            -4.9615     1.3416    -0.0362 C.2     
  10 O10           -3.7663     1.9394    -0.1623 O.3     
  11 C11           -6.4534    -0.6953     0.0859 C.3     
  12 C12           -6.7921    -0.8317     1.5480 C.ar    
  13 C13           -7.4545     0.1912     2.2019 C.ar    
  14 O14           -5.9575     2.0292     0.0999 O.2     
  15 C15           -6.4457    -1.9802     2.2318 C.ar    
  16 C16           -6.7583    -2.1051     3.5798 C.ar    
  17 C17           -7.4185    -1.0736     4.2348 C.ar    
  18 C18           -7.7671     0.0702     3.5433 C.ar    
  19 O19            0.9458     1.7224    -0.7273 O.3     
  20 N20           -6.4099    -3.2657     4.2745 N.am    
  21 S21           -7.5721    -4.3809     4.6590 S.o2    
  22 O22           -6.8603    -5.4116     5.3301 O.2     
  23 O23           -8.5736    -3.6269     5.3280 O.2     
  24 C24           -4.1046    -2.3446    -0.2358 C.3     
  25 C25           -8.1830    -4.9693     3.0555 C.3     
  26 C26           -9.1847    -6.1045     3.2768 C.3     
  27 C27            2.0949     0.8876    -0.8853 C.3     
  28 H28            0.5862    -0.8672    -0.7525 H       
  29 H29           -1.5616    -2.0089    -0.5280 H       
  30 H30           -1.3468     2.9340    -0.4176 H       
  31 H31           -7.1994    -0.0687    -0.4030 H       
  32 H32           -6.4460    -1.6812    -0.3789 H       
  33 H33           -7.7278     1.0868     1.6637 H       
  34 H34           -5.9327    -2.7806     1.7194 H       
  35 H35           -7.6630    -1.1675     5.2826 H       
  36 H36           -8.2802     0.8728     4.0521 H       
  37 H37           -5.4872    -3.4184     4.5316 H       
  38 H38           -3.1142    -2.7812    -0.3648 H       
  39 H39           -4.5359    -2.6933     0.7025 H       
  40 H40           -4.7453    -2.6459    -1.0644 H       
  41 H41           -8.6731    -4.1495     2.5304 H       
  42 H42           -7.3464    -5.3340     2.4596 H       
  43 H43           -8.6946    -6.9243     3.8019 H       
  44 H44          -10.0213    -5.7397     3.8727 H       
  45 H45           -9.5518    -6.4580     2.3133 H       
  46 H46            2.1923     0.2355    -0.0173 H       
  47 H47            1.9828     0.2816    -1.7843 H       
  48 H48            2.9859     1.5091    -0.9747 H       
  49 C49            8.5131    10.6033    12.1984 C.3     
  50 N50            8.5329     9.1385    12.1904 N.2     
  51 C51            9.0737     8.5260    11.2443 C.1     
  52 O52            9.5962     7.9340    10.3301 O.2     
  53 H53            9.5357    10.9806    12.1907 H       
  54 H54            7.9859    10.9644    11.3153 H       
  55 H55            8.0029    10.9549    13.0952 H       
@<TRIPOS>BOND
   1    1    2 ar
   2    1   19 1
   3    1    6 ar
   4    2    3 ar
   5    2   28 1
   6    3    4 ar
   7    3   29 1
   8    4    5 ar
   9    4    7 1
  10    5    6 ar
  11    5   10 1
  12    6   30 1
  13    7    8 2
  14    7   24 1
  15    8    9 1
  16    8   11 1
  17    9   10 1
  18    9   14 2
  19   11   12 1
  20   11   31 1
  21   11   32 1
  22   12   13 ar
  23   12   15 ar
  24   13   18 ar
  25   13   33 1
  26   15   16 ar
  27   15   34 1
  28   16   17 ar
  29   16   20 1
  30   17   18 ar
  31   17   35 1
  32   18   36 1
  33   19   27 1
  34   20   21 am
  35   20   37 1
  36   21   22 2
  37   21   23 2
  38   21   25 1
  39   24   38 1
  40   24   39 1
  41   24   40 1
  42   25   26 1
  43   25   41 1
  44   25   42 1
  45   26   43 1
  46   26   44 1
  47   26   45 1
  48   27   46 1
  49   27   47 1
  50   27   48 1
  51   49   50 1
  52   49   53 1
  53   49   54 1
  54   49   55 1
  55   50   51 2
  56   51   52 2

#	End of record

