#	Name: ASD04840083
#	Creating user name:	WinNT
#	Creation time:	15. 06. 2019 20:52

#	Modifying user name:	WinNT
#	Modification time:	15. 06. 2019 20:52

#	Program:	/corina/corina34_cracker 3.40 0067  02.08.2006

@<TRIPOS>MOLECULE
ASD04840083
  47   50    0    0    0
SMALL
NO_CHARGES


@<TRIPOS>ATOM
   1 C1            -0.4484     0.9534     0.1982 C.ar    
   2 C2            -1.7797     1.4196     0.3234 C.ar    
   3 C3            -2.8253     0.4944     0.4842 C.ar    
   4 C4            -2.5567    -0.8411     0.5195 C.ar    
   5 C5            -1.2567    -1.3165     0.3982 C.ar    
   6 C6            -0.1957    -0.4397     0.2380 C.ar    
   7 C7             1.1838    -0.9530     0.1030 C.ar    
   8 C8             2.1906    -0.6559     1.1227 C.ar    
   9 C9             3.5042    -1.1683     0.9556 C.ar    
  10 C10            3.8103    -1.9424    -0.1715 C.ar    
  11 C11            2.8457    -2.2094    -1.1190 C.ar    
  12 C12            1.5424    -1.7270    -0.9869 C.ar    
  13 N13            1.8912     0.0779     2.1882 N.ar    
  14 C14            2.7965     0.3483     3.1114 C.ar    
  15 C15            4.1131    -0.1265     3.0075 C.ar    
  16 C16            4.4779    -0.8857     1.9339 C.ar    
  17 C17            2.4139     1.1707     4.2811 C.2     
  18 O18            3.2356     1.4274     5.1377 O.2     
  19 O19            1.1545     1.6344     4.3954 O.3     
  20 C20           -2.0310     2.8022     0.2839 C.ar    
  21 C21           -0.9948     3.6709     0.1264 C.ar    
  22 C22            0.3141     3.2102     0.0034 C.ar    
  23 C23            0.5929     1.8769     0.0316 C.ar    
  24 N24            3.1785    -2.9835    -2.2341 N.am    
  25 C25            2.6393    -2.7001    -3.4364 C.2     
  26 O26            3.0298    -3.3852    -4.5277 O.3     
  27 C27            2.4066    -3.0264    -5.7892 C.3     
  28 C28            2.9727    -3.9058    -6.9060 C.3     
  29 O29            1.8007    -1.8263    -3.5354 O.2     
  30 H30           -3.8432     0.8423     0.5804 H       
  31 H31           -3.3685    -1.5424     0.6443 H       
  32 H32           -1.0713    -2.3800     0.4298 H       
  33 H33            4.8094    -2.3324    -0.2989 H       
  34 H34            0.8077    -1.9572    -1.7442 H       
  35 H35            4.8355     0.1084     3.7751 H       
  36 H36            5.4862    -1.2602     1.8369 H       
  37 H37            0.9520     2.1671     5.1767 H       
  38 H38           -3.0409     3.1733     0.3777 H       
  39 H39           -1.1904     4.7326     0.0960 H       
  40 H40            1.1188     3.9198    -0.1207 H       
  41 H41            1.6119     1.5334    -0.0692 H       
  42 H42            3.7975    -3.7247    -2.1428 H       
  43 H43            1.3295    -3.1777    -5.7183 H       
  44 H44            2.6127    -1.9794    -6.0114 H       
  45 H45            2.5049    -3.6365    -7.8529 H       
  46 H46            4.0498    -3.7545    -6.9768 H       
  47 H47            2.7667    -4.9528    -6.6838 H       
@<TRIPOS>BOND
   1    1    6 ar
   2    1   23 ar
   3    1    2 ar
   4    2    3 ar
   5    2   20 ar
   6    3    4 ar
   7    3   30 1
   8    4    5 ar
   9    4   31 1
  10    5    6 ar
  11    5   32 1
  12    6    7 1
  13    7    8 ar
  14    7   12 ar
  15    8   13 ar
  16    8    9 ar
  17    9   10 ar
  18    9   16 ar
  19   10   11 ar
  20   10   33 1
  21   11   12 ar
  22   11   24 1
  23   12   34 1
  24   13   14 ar
  25   14   15 ar
  26   14   17 1
  27   15   16 ar
  28   15   35 1
  29   16   36 1
  30   17   18 2
  31   17   19 1
  32   19   37 1
  33   20   21 ar
  34   20   38 1
  35   21   22 ar
  36   21   39 1
  37   22   23 ar
  38   22   40 1
  39   23   41 1
  40   24   25 am
  41   24   42 1
  42   25   26 1
  43   25   29 2
  44   26   27 1
  45   27   28 1
  46   27   43 1
  47   27   44 1
  48   28   45 1
  49   28   46 1
  50   28   47 1

#	End of record

