#	Name: ASD03082223
#	Creating user name:	WinNT
#	Creation time:	15. 06. 2019 20:27

#	Modifying user name:	WinNT
#	Modification time:	15. 06. 2019 20:27

#	Program:	/corina/corina34_cracker 3.40 0067  02.08.2006

@<TRIPOS>MOLECULE
ASD03082223
  43   45    0    0    0
SMALL
NO_CHARGES


@<TRIPOS>ATOM
   1 N1            -0.4184     1.1189    -0.0105 N.am    
   2 N2            -0.1447    -0.2586    -0.0141 N.2     
   3 C3             1.1610    -0.3905    -0.0184 C.2     
   4 N4             1.7268     0.8195    -0.0177 N.2     
   5 C5             0.7933     1.7480    -0.0130 C.2     
   6 N6             1.8492    -1.6028    -0.0222 N.pl3   
   7 C7             1.1462    -2.8065     0.0948 C.ar    
   8 C8             1.6868    -3.9801    -0.4151 C.ar    
   9 C9             0.9910    -5.1672    -0.2985 C.ar    
  10 C10           -0.2448    -5.1882     0.3263 C.ar    
  11 C11           -0.7854    -4.0197     0.8354 C.ar    
  12 C12           -0.0904    -2.8310     0.7260 C.ar    
  13 C13            1.5767    -6.4406    -0.8520 C.3     
  14 F14            2.8207    -6.1686    -1.4313 F       
  15 F15            1.7370    -7.3685     0.1827 F       
  16 F16            0.7160    -6.9670    -1.8213 F       
  17 C17            2.0658     5.1795     0.8778 C.ar    
  18 C18            1.8873     3.8053     0.9155 C.ar    
  19 C19            1.0170     3.2091    -0.0112 C.ar    
  20 C20            0.3682     4.0375    -0.9331 C.ar    
  21 C21            0.6060     5.3961    -0.8967 C.ar    
  22 N22            1.4316     5.9186    -0.0105 N.ar    
  23 C23           -1.6333     1.7026    -0.0105 C.2     
  24 N24           -2.7438     0.9473    -0.1230 N.am    
  25 F25           -0.9239    -6.3507     0.4389 F       
  26 C26           -4.0643     1.5817    -0.1230 C.3     
  27 O27           -1.7273     2.9098     0.0909 O.2     
  28 O28            2.5435     3.0486     1.8324 O.3     
  29 C29            3.4109     3.7339     2.7379 C.3     
  30 H30            2.8155    -1.6116    -0.1060 H       
  31 H31            2.6503    -3.9640    -0.9028 H       
  32 H32           -1.7494    -4.0384     1.3219 H       
  33 H33           -0.5104    -1.9206     1.1275 H       
  34 H34            2.7290     5.6509     1.5880 H       
  35 H35           -0.3091     3.6195    -1.6632 H       
  36 H36            0.1087     6.0419    -1.6053 H       
  37 H37           -2.6687    -0.0164    -0.2040 H       
  38 H38           -4.1331     2.2773    -0.9593 H       
  39 H39           -4.8347     0.8170    -0.2221 H       
  40 H40           -4.2075     2.1227     0.8124 H       
  41 H41            2.8355     4.4585     3.3141 H       
  42 H42            3.8711     3.0143     3.4151 H       
  43 H43            4.1878     4.2516     2.1753 H       
@<TRIPOS>BOND
   1    1    2 1
   2    1    5 1
   3    1   23 am
   4    2    3 2
   5    3    4 1
   6    3    6 1
   7    4    5 2
   8    5   19 1
   9    6    7 1
  10    6   30 1
  11    7    8 ar
  12    7   12 ar
  13    8    9 ar
  14    8   31 1
  15    9   10 ar
  16    9   13 1
  17   10   11 ar
  18   10   25 1
  19   11   12 ar
  20   11   32 1
  21   12   33 1
  22   13   14 1
  23   13   15 1
  24   13   16 1
  25   17   18 ar
  26   17   22 ar
  27   17   34 1
  28   18   19 ar
  29   18   28 1
  30   19   20 ar
  31   20   21 ar
  32   20   35 1
  33   21   22 ar
  34   21   36 1
  35   23   24 am
  36   23   27 2
  37   24   26 1
  38   24   37 1
  39   26   38 1
  40   26   39 1
  41   26   40 1
  42   28   29 1
  43   29   41 1
  44   29   42 1
  45   29   43 1

#	End of record

