#	Name: ASD01900820
#	Creating user name:	WinNT
#	Creation time:	15. 06. 2019 19:52

#	Modifying user name:	WinNT
#	Modification time:	15. 06. 2019 19:52

#	Program:	/corina/corina34_cracker 3.40 0067  02.08.2006

@<TRIPOS>MOLECULE
ASD01900820
  42   45    0    0    0
SMALL
NO_CHARGES


@<TRIPOS>ATOM
   1 N1             0.6520     1.6045     0.5513 N.am    
   2 C2             1.0414     0.2856     0.8124 C.ar    
   3 C3             2.7742    -1.3391     1.1467 C.ar    
   4 C4             2.3896    -0.0381     0.8891 C.ar    
   5 C5             0.0790    -0.6984     1.0005 C.ar    
   6 C6             0.4634    -1.9995     1.2586 C.ar    
   7 C7             1.8132    -2.3238     1.3300 C.ar    
   8 Cl8           -0.7388    -3.2295     1.4943 Cl      
   9 C9             1.3538     2.3540    -0.3219 C.2     
  10 C10            0.9099     3.7260    -0.6408 C.ar    
  11 O11            2.3523     1.9005    -0.8470 O.2     
  12 C12            1.5687     4.4571    -1.6387 C.ar    
  13 C13            1.1328     5.7514    -1.9244 C.ar    
  14 C14            0.0652     6.2595    -1.2078 C.ar    
  15 C15           -0.5380     5.4765    -0.2336 C.ar    
  16 N16           -0.1151     4.2580     0.0163 N.ar    
  17 N17            2.6373     3.9029    -2.3310 N.pl3   
  18 N18            2.2037    -3.6440     1.5910 N.am    
  19 C19            2.8533    -5.8778     1.3999 C.3     
  20 C20            2.4398    -4.5990     0.6572 C.2     
  21 C21            2.4354    -4.2321     2.9412 C.3     
  22 C22            1.2517    -5.2313     3.1338 C.3     
  23 C23            1.5355    -6.3484     2.1005 C.3     
  24 O24            2.3419    -4.4671    -0.5446 O.2     
  25 C25            3.6051    -5.2300     2.6174 C.3     
  26 H26           -0.1252     1.9778     0.9957 H       
  27 H27            3.8229    -1.5904     1.2056 H       
  28 H28            3.1376     0.7279     0.7470 H       
  29 H29           -0.9696    -0.4458     0.9453 H       
  30 H30            1.6181     6.3425    -2.6870 H       
  31 H31           -0.2963     7.2581    -1.4043 H       
  32 H32           -1.3719     5.8741     0.3258 H       
  33 H33            2.7421     2.9394    -2.3708 H       
  34 H34            3.2789     4.4792    -2.7749 H       
  35 H35            3.3913    -6.6264     0.8184 H       
  36 H36            2.5997    -3.5219     3.7516 H       
  37 H37            1.2542    -5.6366     4.1456 H       
  38 H38            0.3008    -4.7437     2.9185 H       
  39 H39            0.7218    -6.4185     1.3787 H       
  40 H40            1.6881    -7.3044     2.6014 H       
  41 H41            3.7796    -5.9408     3.4251 H       
  42 H42            4.5192    -4.7176     2.3175 H       
@<TRIPOS>BOND
   1    1    2 1
   2    1    9 am
   3    1   26 1
   4    2    5 ar
   5    2    4 ar
   6    3    4 ar
   7    3    7 ar
   8    3   27 1
   9    4   28 1
  10    5    6 ar
  11    5   29 1
  12    6    7 ar
  13    6    8 1
  14    7   18 1
  15    9   10 1
  16    9   11 2
  17   10   12 ar
  18   10   16 ar
  19   12   13 ar
  20   12   17 1
  21   13   14 ar
  22   13   30 1
  23   14   15 ar
  24   14   31 1
  25   15   16 ar
  26   15   32 1
  27   17   33 1
  28   17   34 1
  29   18   21 1
  30   18   20 am
  31   19   20 1
  32   19   23 1
  33   19   25 1
  34   19   35 1
  35   20   24 2
  36   21   22 1
  37   21   25 1
  38   21   36 1
  39   22   23 1
  40   22   37 1
  41   22   38 1
  42   23   39 1
  43   23   40 1
  44   25   41 1
  45   25   42 1

#	End of record

