#	Name: ASD04590292
#	Creating user name:	WinNT
#	Creation time:	15. 06. 2019 20:50

#	Modifying user name:	WinNT
#	Modification time:	15. 06. 2019 20:50

#	Program:	/corina/corina34_cracker 3.40 0067  02.08.2006

@<TRIPOS>MOLECULE
ASD04590292
  44   47    0    0    0
SMALL
NO_CHARGES


@<TRIPOS>ATOM
   1 C1            -0.0167     1.3832     0.0096 C.ar    
   2 C2             0.0021    -0.0041     0.0020 C.ar    
   3 C3             1.1969    -0.6869    -0.0131 C.ar    
   4 C4             2.4020     0.0223    -0.0208 C.ar    
   5 C5             2.3769     1.4283    -0.0131 C.ar    
   6 C6             1.1624     2.0986     0.0022 C.ar    
   7 N7             3.7040    -0.3551    -0.0358 N.2     
   8 C8             4.4709     0.7083    -0.0377 C.2     
   9 N9             3.6969     1.8375    -0.0240 N.pl3   
  10 C10            5.9482     0.6906    -0.0520 C.2     
  11 C11            6.7657    -0.4631    -0.0663 C.2     
  12 C12            8.0578    -0.0540    -0.0764 C.2     
  13 N13            8.0646     1.3050    -0.0689 N.pl3   
  14 N14            6.7360     1.7480    -0.0594 N.2     
  15 N15            6.3187    -1.7945    -0.0694 N.am    
  16 C16            7.2107    -2.8047    -0.0836 C.2     
  17 C17            6.7422    -4.2004    -0.0869 C.ar    
  18 O18            8.4029    -2.5633    -0.0938 O.2     
  19 C19            6.0590    -6.1746    -1.2916 C.ar    
  20 C20            5.8572    -6.8335    -0.0932 C.ar    
  21 C21            6.0876    -6.1899     1.1085 C.ar    
  22 C22            6.5290    -4.8767     1.1231 C.ar    
  23 C23            6.5002    -4.8613    -1.3001 C.ar    
  24 O24            6.7548    -4.2475     2.3036 O.3     
  25 O25            6.6970    -4.2168    -2.4775 O.3     
  26 C26            6.5161    -4.9991     3.4954 C.3     
  27 C27            6.4300    -4.9532    -3.6727 C.3     
  28 H28           -0.9614     1.9066     0.0170 H       
  29 H29           -0.9283    -0.5525     0.0084 H       
  30 H30            1.2037    -1.7669    -0.0186 H       
  31 H31            1.1403     3.1784     0.0079 H       
  32 H32            4.0155     2.7537    -0.0228 H       
  33 H33            8.9275    -0.6942    -0.0880 H       
  34 H34            8.8529     1.8702    -0.0728 H       
  35 H35            5.3680    -1.9869    -0.0614 H       
  36 H36            5.8760    -6.6868    -2.2247 H       
  37 H37            5.5131    -7.8572    -0.0956 H       
  38 H38            5.9264    -6.7138     2.0390 H       
  39 H39            6.7348    -4.3798     4.3654 H       
  40 H40            5.4723    -5.3115     3.5250 H       
  41 H41            7.1592    -5.8791     3.5049 H       
  42 H42            6.6273    -4.3227    -4.5397 H       
  43 H43            7.0731    -5.8325    -3.7091 H       
  44 H44            5.3859    -5.2661    -3.6811 H       
@<TRIPOS>BOND
   1    1    2 ar
   2    1    6 ar
   3    1   28 1
   4    2    3 ar
   5    2   29 1
   6    3    4 ar
   7    3   30 1
   8    4    5 ar
   9    4    7 1
  10    5    6 ar
  11    5    9 1
  12    6   31 1
  13    7    8 2
  14    8    9 1
  15    8   10 1
  16    9   32 1
  17   10   11 1
  18   10   14 2
  19   11   12 2
  20   11   15 1
  21   12   13 1
  22   12   33 1
  23   13   14 1
  24   13   34 1
  25   15   16 am
  26   15   35 1
  27   16   17 1
  28   16   18 2
  29   17   22 ar
  30   17   23 ar
  31   19   20 ar
  32   19   23 ar
  33   19   36 1
  34   20   21 ar
  35   20   37 1
  36   21   22 ar
  37   21   38 1
  38   22   24 1
  39   23   25 1
  40   24   26 1
  41   25   27 1
  42   26   39 1
  43   26   40 1
  44   26   41 1
  45   27   42 1
  46   27   43 1
  47   27   44 1

#	End of record

