#	Name: ASD01208739
#	Creating user name:	WinNT
#	Creation time:	15. 06. 2019 19:10

#	Modifying user name:	WinNT
#	Modification time:	15. 06. 2019 19:10

#	Program:	/corina/corina34_cracker 3.40 0067  02.08.2006

@<TRIPOS>MOLECULE
ASD01208739
  69   73    0    0    0
SMALL
NO_CHARGES


@<TRIPOS>ATOM
   1 C1            -0.0507     1.3603    -0.4067 C.2     
   2 C2             0.0243     0.0688     0.2967 C.ar    
   3 C3             1.2622    -0.5716     0.4644 C.ar    
   4 C4             1.3236    -1.7853     1.1272 C.ar    
   5 C5             0.1649    -2.3649     1.6231 C.ar    
   6 C6            -1.0629    -1.7315     1.4573 C.ar    
   7 C7            -1.1364    -0.5221     0.8054 C.ar    
   8 O8             0.9613     1.8745    -0.8437 O.2     
   9 N9            -1.2413     1.9701    -0.5709 N.am    
  10 S10           -2.7504     4.0697    -1.5129 S.3     
  11 C11           -1.3121     3.1883    -1.2344 C.2     
  12 N12           -0.2970     3.8229    -1.7321 N.2     
  13 C13           -0.5464     4.9724    -2.3312 C.2     
  14 C14           -1.8330     5.3258    -2.3400 C.2     
  15 C15           -2.4020     6.5805    -2.9508 C.3     
  16 O16            2.3940    -0.0035    -0.0217 O.3     
  17 C17            3.5509    -0.7093     0.0675 C.ar    
  18 C18            3.9123    -1.5791    -0.9535 C.ar    
  19 C19            5.0854    -2.2971    -0.8666 C.ar    
  20 C20            5.9114    -2.1490     0.2494 C.ar    
  21 C21            5.5449    -1.2734     1.2735 C.ar    
  22 C22            4.3726    -0.5553     1.1770 C.ar    
  23 O23            8.0574    -2.8732     1.3606 O.3     
  24 C24            7.1698    -2.9173     0.3468 C.2     
  25 N25            7.6318    -3.7704    -0.5376 N.2     
  26 N26            8.7509    -4.2492    -0.1208 N.2     
  27 C27            9.0453    -3.7255     1.0360 C.2     
  28 C28           10.2718    -4.0213     1.8603 C.3     
  29 O29            0.2291    -3.5549     2.2725 O.3     
  30 C30           -1.0011    -4.0962     2.7580 C.3     
  31 N31           -1.2819    -8.2538     3.7088 N.3     
  32 C32           -1.7638    -7.3139     4.7289 C.3     
  33 C33           -2.0265    -5.9507     4.0849 C.3     
  34 C34           -0.7309    -5.4305     3.4561 C.3     
  35 C35           -0.2243    -6.4503     2.4324 C.3     
  36 C36           -0.0139    -7.7990     3.1243 C.3     
  37 C37           -1.1510    -9.6087     4.2612 C.3     
  38 C38           -0.8913   -10.5999     3.1250 C.3     
  39 H39            2.2739    -2.2814     1.2580 H       
  40 H40           -1.9610    -2.1887     1.8457 H       
  41 H41           -2.0907    -0.0314     0.6829 H       
  42 H42           -2.0489     1.5581    -0.2259 H       
  43 H43            0.2284     5.5780    -2.7777 H       
  44 H44           -3.4819     6.5987    -2.8038 H       
  45 H45           -1.9555     7.4523    -2.4725 H       
  46 H46           -2.1802     6.5980    -4.0179 H       
  47 H47            3.2730    -1.6931    -1.8164 H       
  48 H48            5.3654    -2.9736    -1.6605 H       
  49 H49            6.1812    -1.1562     2.1382 H       
  50 H50            4.0904     0.1252     1.9667 H       
  51 H51           10.0657    -4.8544     2.5323 H       
  52 H52           11.0988    -4.2830     1.2002 H       
  53 H53           10.5379    -3.1405     2.4446 H       
  54 H54           -1.4500    -3.3998     3.4664 H       
  55 H55           -1.6831    -4.2547     1.9226 H       
  56 H56           -2.6878    -7.6936     5.1651 H       
  57 H57           -1.0106    -7.2076     5.5096 H       
  58 H58           -2.7896    -6.0536     3.3134 H       
  59 H59           -2.3693    -5.2490     4.8453 H       
  60 H60            0.0202    -5.2894     4.2334 H       
  61 H61           -0.9591    -6.5611     1.6349 H       
  62 H62            0.7205    -6.1055     2.0122 H       
  63 H63            0.7311    -7.6905     3.9125 H       
  64 H64            0.3331    -8.5310     2.3950 H       
  65 H65           -0.3183    -9.6355     4.9642 H       
  66 H66           -2.0714    -9.8810     4.7777 H       
  67 H67           -0.7941   -11.6052     3.5349 H       
  68 H68           -1.7239   -10.5730     2.4220 H       
  69 H69            0.0292   -10.3275     2.6085 H       
@<TRIPOS>BOND
   1    1    2 1
   2    1    8 2
   3    1    9 am
   4    2    3 ar
   5    2    7 ar
   6    3    4 ar
   7    3   16 1
   8    4    5 ar
   9    4   39 1
  10    5    6 ar
  11    5   29 1
  12    6    7 ar
  13    6   40 1
  14    7   41 1
  15    9   11 1
  16    9   42 1
  17   10   11 1
  18   10   14 1
  19   11   12 2
  20   12   13 1
  21   13   14 2
  22   13   43 1
  23   14   15 1
  24   15   44 1
  25   15   45 1
  26   15   46 1
  27   16   17 1
  28   17   18 ar
  29   17   22 ar
  30   18   19 ar
  31   18   47 1
  32   19   20 ar
  33   19   48 1
  34   20   21 ar
  35   20   24 1
  36   21   22 ar
  37   21   49 1
  38   22   50 1
  39   23   24 1
  40   23   27 1
  41   24   25 2
  42   25   26 1
  43   26   27 2
  44   27   28 1
  45   28   51 1
  46   28   52 1
  47   28   53 1
  48   29   30 1
  49   30   34 1
  50   30   54 1
  51   30   55 1
  52   31   32 1
  53   31   36 1
  54   31   37 1
  55   32   33 1
  56   32   56 1
  57   32   57 1
  58   33   34 1
  59   33   58 1
  60   33   59 1
  61   34   35 1
  62   34   60 1
  63   35   36 1
  64   35   61 1
  65   35   62 1
  66   36   63 1
  67   36   64 1
  68   37   38 1
  69   37   65 1
  70   37   66 1
  71   38   67 1
  72   38   68 1
  73   38   69 1

#	End of record

