#	Name: ASD04880455
#	Creating user name:	WinNT
#	Creation time:	15. 06. 2019 20:53

#	Modifying user name:	WinNT
#	Modification time:	15. 06. 2019 20:53

#	Program:	/corina/corina34_cracker 3.40 0067  02.08.2006

@<TRIPOS>MOLECULE
ASD04880455
  52   54    0    0    0
SMALL
NO_CHARGES


@<TRIPOS>ATOM
   1 C1            -0.0167     1.3827     0.0096 C.ar    
   2 C2             0.0021    -0.0041     0.0020 C.ar    
   3 C3            -1.1810    -0.7132     0.0090 C.ar    
   4 C4            -2.4017    -0.0345     0.0243 C.ar    
   5 C5            -2.4203     1.3630     0.0325 C.ar    
   6 C6            -1.2308     2.0665     0.0307 C.ar    
   7 O7             1.1521     2.0766     0.0022 O.3     
   8 C8             2.3599     1.3130    -0.0134 C.3     
   9 C9            -3.6675    -0.7904     0.0314 C.2     
  10 C10           -3.7835    -2.2979     0.0234 C.3     
  11 C11           -5.3036    -2.5534     0.0363 C.3     
  12 N12           -5.8811    -1.2000     0.0501 N.am    
  13 N13           -4.8451    -0.2682     0.0510 N.2     
  14 C14           -7.1970    -0.9092     0.0640 C.2     
  15 O15           -8.0160    -1.8042     0.0660 O.2     
  16 C16           -7.6511     0.5277     0.0771 C.3     
  17 O17           -9.0754     0.5781    -0.0269 O.3     
  18 C18           -7.2180     1.1796     1.3650 C.ar    
  19 C19           -9.5582     0.6410    -1.3704 C.3     
  20 C20           -6.0923     1.9821     1.3878 C.ar    
  21 C21           -5.6933     2.5809     2.5671 C.ar    
  22 C22           -6.4231     2.3764     3.7291 C.ar    
  23 C23           -7.5522     1.5707     3.7035 C.ar    
  24 C24           -7.9503     0.9788     2.5205 C.ar    
  25 O25           -1.2452     3.4263     0.0391 O.3     
  26 C26           -2.5252     4.0616     0.0495 C.3     
  27 O27           -6.0323     2.9639     4.8905 O.3     
  28 C28           -6.8315     2.7090     6.0474 C.3     
  29 H29            0.9453    -0.5300    -0.0098 H       
  30 H30           -1.1635    -1.7930     0.0024 H       
  31 H31           -3.3619     1.8918     0.0444 H       
  32 H32            3.2161     1.9874    -0.0180 H       
  33 H33            2.4008     0.6797     0.8728 H       
  34 H34            2.3838     0.6893    -0.9070 H       
  35 H35           -3.3340    -2.7111    -0.8796 H       
  36 H36           -3.3168    -2.7220     0.9125 H       
  37 H37           -5.6097    -3.0920    -0.8605 H       
  38 H38           -5.5926    -3.1029     0.9323 H       
  39 H39           -7.2063     1.0570    -0.7655 H       
  40 H40          -10.6476     0.6766    -1.3636 H       
  41 H41           -9.1685     1.5362    -1.8550 H       
  42 H42           -9.2269    -0.2417    -1.9172 H       
  43 H43           -5.5243     2.1407     0.4830 H       
  44 H44           -4.8137     3.2074     2.5845 H       
  45 H45           -8.1220     1.4100     4.6068 H       
  46 H46           -8.8292     0.3515     2.5000 H       
  47 H47           -2.3938     5.1436     0.0554 H       
  48 H48           -3.0836     3.7682    -0.8395 H       
  49 H49           -3.0745     3.7574     0.9404 H       
  50 H50           -7.8488     3.0581     5.8704 H       
  51 H51           -6.8450     1.6383     6.2509 H       
  52 H52           -6.4102     3.2363     6.9034 H       
@<TRIPOS>BOND
   1    1    2 ar
   2    1    7 1
   3    1    6 ar
   4    2    3 ar
   5    2   29 1
   6    3    4 ar
   7    3   30 1
   8    4    5 ar
   9    4    9 1
  10    5    6 ar
  11    5   31 1
  12    6   25 1
  13    7    8 1
  14    8   32 1
  15    8   33 1
  16    8   34 1
  17    9   10 1
  18    9   13 2
  19   10   11 1
  20   10   35 1
  21   10   36 1
  22   11   12 1
  23   11   37 1
  24   11   38 1
  25   12   13 1
  26   12   14 am
  27   14   15 2
  28   14   16 1
  29   16   17 1
  30   16   18 1
  31   16   39 1
  32   17   19 1
  33   18   20 ar
  34   18   24 ar
  35   19   40 1
  36   19   41 1
  37   19   42 1
  38   20   21 ar
  39   20   43 1
  40   21   22 ar
  41   21   44 1
  42   22   23 ar
  43   22   27 1
  44   23   24 ar
  45   23   45 1
  46   24   46 1
  47   25   26 1
  48   26   47 1
  49   26   48 1
  50   26   49 1
  51   27   28 1
  52   28   50 1
  53   28   51 1
  54   28   52 1

#	End of record

