#	Name: ASD01140478
#	Creating user name:	WinNT
#	Creation time:	15. 06. 2019 19:00

#	Modifying user name:	WinNT
#	Modification time:	15. 06. 2019 19:00

#	Program:	/corina/corina34_cracker 3.40 0067  02.08.2006

@<TRIPOS>MOLECULE
ASD01140478
  37   39    0    0    0
SMALL
NO_CHARGES


@<TRIPOS>ATOM
   1 C1            -0.0289     1.0083    -0.2704 C.ar    
   2 C2             0.1651    -0.3516    -0.0951 C.ar    
   3 C3             1.4417    -0.8495     0.0831 C.ar    
   4 C4             2.5251     0.0095     0.0869 C.ar    
   5 C5             2.3327     1.3671    -0.0880 C.ar    
   6 C6             1.0567     1.8674    -0.2669 C.ar    
   7 C7             3.5145     2.3021    -0.0837 C.3     
   8 S8             4.1480     2.4817    -1.7697 S.3     
   9 C9             5.4838     3.5931    -1.4779 C.2     
  10 N10            6.3027     4.0565    -2.4797 N.am    
  11 N11            5.7758     4.0481    -0.3036 N.2     
  12 C12            6.9342     4.9484    -0.3832 C.3     
  13 C13            7.3012     4.9576    -1.8803 C.3     
  14 C14            6.2084     3.7401    -3.7864 C.2     
  15 C15            7.0831     4.4064    -4.7726 C.ar    
  16 O16            5.4035     2.9066    -4.1532 O.2     
  17 C17            8.9237     5.8677    -5.2692 C.ar    
  18 C18            8.1101     5.2490    -4.3430 C.ar    
  19 C19            6.8903     4.1919    -6.1402 C.ar    
  20 C20            7.7127     4.8181    -7.0560 C.ar    
  21 C21            8.7248     5.6551    -6.6221 C.ar    
  22 Cl22           5.6211     3.1407    -6.6859 Cl      
  23 F23           -1.2761     1.4955    -0.4503 F       
  24 H24           -0.6810    -1.0227    -0.0973 H       
  25 H25            1.5932    -1.9101     0.2199 H       
  26 H26            3.5224    -0.3804     0.2270 H       
  27 H27            0.9066     2.9281    -0.4039 H       
  28 H28            3.2054     3.2767     0.2941 H       
  29 H29            4.2970     1.8956     0.5571 H       
  30 H30            6.6619     5.9509    -0.0530 H       
  31 H31            7.7606     4.5606     0.2125 H       
  32 H32            8.3088     4.5714    -2.0338 H       
  33 H33            7.2071     5.9630    -2.2906 H       
  34 H34            9.7181     6.5199    -4.9377 H       
  35 H35            8.2670     5.4162    -3.2876 H       
  36 H36            7.5655     4.6537    -8.1133 H       
  37 H37            9.3651     6.1424    -7.3424 H       
@<TRIPOS>BOND
   1    1    2 ar
   2    1    6 ar
   3    1   23 1
   4    2    3 ar
   5    2   24 1
   6    3    4 ar
   7    3   25 1
   8    4    5 ar
   9    4   26 1
  10    5    6 ar
  11    5    7 1
  12    6   27 1
  13    7    8 1
  14    7   28 1
  15    7   29 1
  16    8    9 1
  17    9   11 2
  18    9   10 1
  19   10   13 1
  20   10   14 am
  21   11   12 1
  22   12   13 1
  23   12   30 1
  24   12   31 1
  25   13   32 1
  26   13   33 1
  27   14   15 1
  28   14   16 2
  29   15   19 ar
  30   15   18 ar
  31   17   18 ar
  32   17   21 ar
  33   17   34 1
  34   18   35 1
  35   19   20 ar
  36   19   22 1
  37   20   21 ar
  38   20   36 1
  39   21   37 1

#	End of record

