#	Name: ASD08070691
#	Creating user name:	WinNT
#	Creation time:	15. 06. 2019 21:15

#	Modifying user name:	WinNT
#	Modification time:	15. 06. 2019 21:15

#	Program:	/corina/corina34_cracker 3.40 0067  02.08.2006

@<TRIPOS>MOLECULE
ASD08070691
  35   36    0    0    0
SMALL
NO_CHARGES


@<TRIPOS>ATOM
   1 C1             0.3703     1.1777    -0.0125 C.2     
   2 N2             0.2255    -0.1596     0.0033 N.am    
   3 C3             1.4214    -0.7756     0.0183 C.2     
   4 C4             2.4818     0.2543     0.0120 C.ar    
   5 C5             3.8669     0.2173     0.0213 C.ar    
   6 C6             4.5860     1.4023     0.0113 C.ar    
   7 C7             3.9310     2.6194    -0.0079 C.ar    
   8 C8             2.5459     2.6718    -0.0174 C.ar    
   9 C9             1.8139     1.4953    -0.0076 C.ar    
  10 O10           -0.5338     1.9884    -0.0327 O.2     
  11 O11            1.6000    -1.9767     0.0351 O.2     
  12 C12           -1.2269    -1.6306    -1.3036 C.3     
  13 C13           -1.0645    -0.8539     0.0046 C.3     
  14 C14           -1.1196    -1.8257     1.1850 C.3     
  15 C15           -1.0441    -1.0406     2.4960 C.3     
  16 C16           -2.2897    -0.1634     2.6375 C.3     
  17 C17           -0.9716    -2.0169     3.6717 C.3     
  18 O18           -0.2418    -2.6636    -1.3696 O.3     
  19 H19            4.3840    -0.7307     0.0367 H       
  20 H20            5.6656     1.3744     0.0189 H       
  21 H21            4.5024     3.5358    -0.0152 H       
  22 H22            2.0394     3.6255    -0.0321 H       
  23 H23           -2.2218    -2.0743    -1.3415 H       
  24 H24           -1.0992    -0.9522    -2.1472 H       
  25 H25           -1.8694    -0.1246     0.0965 H       
  26 H26           -2.0536    -2.3866     1.1506 H       
  27 H27           -0.2785    -2.5166     1.1263 H       
  28 H28           -0.1547    -0.4105     2.4915 H       
  29 H29           -3.1792    -0.7935     2.6420 H       
  30 H30           -2.2360     0.3959     3.5715 H       
  31 H31           -2.3414     0.5321     1.7999 H       
  32 H32           -0.0408    -2.5816     3.6181 H       
  33 H33           -1.0057    -1.4607     4.6085 H       
  34 H34           -1.8165    -2.7040     3.6261 H       
  35 H35           -0.2854    -3.1978    -2.1745 H       
@<TRIPOS>BOND
   1    1    2 am
   2    1    9 1
   3    1   10 2
   4    2    3 am
   5    2   13 1
   6    3    4 1
   7    3   11 2
   8    4    5 ar
   9    4    9 ar
  10    5    6 ar
  11    5   19 1
  12    6    7 ar
  13    6   20 1
  14    7    8 ar
  15    7   21 1
  16    8    9 ar
  17    8   22 1
  18   12   18 1
  19   12   13 1
  20   12   23 1
  21   12   24 1
  22   13   14 1
  23   13   25 1
  24   14   15 1
  25   14   26 1
  26   14   27 1
  27   15   16 1
  28   15   17 1
  29   15   28 1
  30   16   29 1
  31   16   30 1
  32   16   31 1
  33   17   32 1
  34   17   33 1
  35   17   34 1
  36   18   35 1

#	End of record

