#	Name: ASD03430216
#	Creating user name:	WinNT
#	Creation time:	15. 06. 2019 20:40

#	Modifying user name:	WinNT
#	Modification time:	15. 06. 2019 20:40

#	Program:	/corina/corina34_cracker 3.40 0067  02.08.2006

@<TRIPOS>MOLECULE
ASD03430216
  67   73    0    0    0
SMALL
NO_CHARGES


@<TRIPOS>ATOM
   1 C1             0.0268     1.3523     0.0272 C.ar    
   2 C2             0.0300    -0.0250     0.0275 C.ar    
   3 C3             1.2243    -0.7145     0.0493 C.ar    
   4 C4             2.4340    -0.0254     0.0800 C.ar    
   5 C5             2.4223     1.3643     0.0689 C.ar    
   6 C6             1.2214     2.0629     0.0394 C.ar    
   7 O7             3.4896    -0.8867     0.1313 O.3     
   8 C8             1.5640    -2.1802     0.0350 C.3     
   9 C9             3.0614    -2.1910    -0.3041 C.3     
  10 C10            0.4009    -3.8848     1.0657 C.ar    
  11 C11            1.2843    -2.8463     1.3497 C.ar    
  12 C12            0.7582    -2.9429    -0.9768 C.2     
  13 N13            0.1143    -3.9155    -0.3009 N.am    
  14 O14            0.6984    -2.7264    -2.1687 O.2     
  15 C15            1.7105    -2.6225     2.6394 C.ar    
  16 C16            1.2626    -3.4324     3.6683 C.ar    
  17 C17            0.3851    -4.4661     3.3980 C.ar    
  18 C18           -0.0454    -4.6944     2.1074 C.ar    
  19 C19           -0.7813    -4.8912    -0.9270 C.3     
  20 C20           -1.0968     2.3701     0.0250 C.3     
  21 C21           -0.3555     3.6661     0.4305 C.3     
  22 O22            0.9940     3.4057     0.0087 O.3     
  23 C23           -2.2041    -4.4052    -0.8246 C.ar    
  24 C24           -3.2343    -5.1234    -1.4344 C.ar    
  25 C25           -2.9338    -6.3625    -2.1822 C.2     
  26 O26           -1.7802    -6.7088    -2.3463 O.2     
  27 C27           -2.4921    -3.2528    -0.1235 C.ar    
  28 C28           -3.7981    -2.8054    -0.0281 C.ar    
  29 C29           -4.8230    -3.5095    -0.6344 C.ar    
  30 C30           -4.5494    -4.6666    -1.3343 C.ar    
  31 N31           -3.9389    -7.1084    -2.6822 N.am    
  32 C32           -3.6594    -8.3223    -3.3179 C.ar    
  33 C33           -4.6233    -9.3214    -3.3651 C.ar    
  34 C34           -4.3442   -10.5189    -3.9936 C.ar    
  35 C35           -2.4197    -8.5293    -3.9084 C.ar    
  36 C36           -2.1468    -9.7294    -4.5355 C.ar    
  37 C37           -3.1063   -10.7241    -4.5754 C.ar    
  38 C38           -5.9721    -9.0990    -2.7307 C.3     
  39 C39           -6.8871    -8.3731    -3.7190 C.3     
  40 H40           -0.9045    -0.5662     0.0109 H       
  41 H41            3.3560     1.9068     0.0840 H       
  42 H42            3.2145    -2.3106    -1.3766 H       
  43 H43            3.5783    -2.9735     0.2514 H       
  44 H44            2.3956    -1.8142     2.8484 H       
  45 H45            1.5979    -3.2575     4.6799 H       
  46 H46            0.0353    -5.0981     4.2010 H       
  47 H47           -0.7307    -5.5040     1.9040 H       
  48 H48           -0.5125    -5.0099    -1.9767 H       
  49 H49           -0.6873    -5.8501    -0.4173 H       
  50 H50           -1.5334     2.4659    -0.9691 H       
  51 H51           -1.8586     2.1108     0.7602 H       
  52 H52           -0.7658     4.5269    -0.0973 H       
  53 H53           -0.4010     3.8155     1.5093 H       
  54 H54           -1.6966    -2.6986     0.3524 H       
  55 H55           -4.0183    -1.9027     0.5223 H       
  56 H56           -5.8402    -3.1551    -0.5558 H       
  57 H57           -5.3504    -5.2154    -1.8072 H       
  58 H58           -4.8561    -6.8033    -2.6010 H       
  59 H59           -5.0932   -11.2961    -4.0307 H       
  60 H60           -1.6698    -7.7527    -3.8776 H       
  61 H61           -1.1829    -9.8910    -4.9949 H       
  62 H62           -2.8902   -11.6618    -5.0657 H       
  63 H63           -6.4124   -10.0605    -2.4667 H       
  64 H64           -5.8553    -8.4937    -1.8317 H       
  65 H65           -7.0038    -8.9784    -4.6179 H       
  66 H66           -7.8626    -8.2122    -3.2601 H       
  67 H67           -6.4467    -7.4116    -3.9830 H       
@<TRIPOS>BOND
   1    1    2 ar
   2    1    6 ar
   3    1   20 1
   4    2    3 ar
   5    2   40 1
   6    3    4 ar
   7    3    8 1
   8    4    5 ar
   9    4    7 1
  10    5    6 ar
  11    5   41 1
  12    6   22 1
  13    7    9 1
  14    8    9 1
  15    8   11 1
  16    8   12 1
  17    9   42 1
  18    9   43 1
  19   10   11 ar
  20   10   13 1
  21   10   18 ar
  22   11   15 ar
  23   12   13 am
  24   12   14 2
  25   13   19 1
  26   15   16 ar
  27   15   44 1
  28   16   17 ar
  29   16   45 1
  30   17   18 ar
  31   17   46 1
  32   18   47 1
  33   19   23 1
  34   19   48 1
  35   19   49 1
  36   20   21 1
  37   20   50 1
  38   20   51 1
  39   21   22 1
  40   21   52 1
  41   21   53 1
  42   23   24 ar
  43   23   27 ar
  44   24   25 1
  45   24   30 ar
  46   25   26 2
  47   25   31 am
  48   27   28 ar
  49   27   54 1
  50   28   29 ar
  51   28   55 1
  52   29   30 ar
  53   29   56 1
  54   30   57 1
  55   31   32 1
  56   31   58 1
  57   32   33 ar
  58   32   35 ar
  59   33   34 ar
  60   33   38 1
  61   34   37 ar
  62   34   59 1
  63   35   36 ar
  64   35   60 1
  65   36   37 ar
  66   36   61 1
  67   37   62 1
  68   38   39 1
  69   38   63 1
  70   38   64 1
  71   39   65 1
  72   39   66 1
  73   39   67 1

#	End of record

