#	Name: ASD01814839
#	Creating user name:	WinNT
#	Creation time:	15. 06. 2019 19:33

#	Modifying user name:	WinNT
#	Modification time:	15. 06. 2019 19:33

#	Program:	/corina/corina34_cracker 3.40 0067  02.08.2006

@<TRIPOS>MOLECULE
ASD01814839
  51   54    0    0    0
SMALL
NO_CHARGES


@<TRIPOS>ATOM
   1 C1             0.0622     1.3501     0.2029 C.2     
   2 C2             0.0602    -0.0498     0.1364 C.2     
   3 C3             1.2468    -0.7219     0.0984 C.2     
   4 C4             2.4510     0.0010     0.1266 C.2     
   5 N5             2.4235     1.3676     0.1920 N.am    
   6 C6             1.2316     2.0285     0.2291 C.2     
   7 C7             3.6718    -0.6874     0.0877 C.2     
   8 C8             4.8474     0.0052     0.1150 C.2     
   9 C9             4.8152     1.4105     0.1817 C.2     
  10 C10            3.5717     2.0738     0.2199 C.2     
  11 O11            3.5345     3.2913     0.2774 O.2     
  12 C12            6.0627     2.1772     0.2126 C.2     
  13 O13            6.0251     3.5241     0.2766 O.3     
  14 O14            7.1326     1.5995     0.1806 O.2     
  15 C15            3.6858    -2.1926     0.0163 C.3     
  16 N16            3.8040    -2.6153    -1.3856 N.3     
  17 C17            4.0587    -4.0595    -1.4805 C.3     
  18 C18            4.0960    -4.4724    -2.9538 C.3     
  19 N19            5.1429    -3.7092    -3.6475 N.3     
  20 C20            4.8882    -2.2650    -3.5525 C.3     
  21 C21            4.8509    -1.8521    -2.0792 C.3     
  22 H22            5.0159    -4.2914    -1.0136 H       
  23 C23            5.2553    -4.1113    -4.9811 C.ar    
  24 C24            6.4857    -4.5126    -5.4854 C.ar    
  25 C25            4.1358    -4.1158    -5.8032 C.ar    
  26 C26            4.2498    -4.5141    -7.1207 C.ar    
  27 C27            5.4779    -4.9084    -7.6219 C.ar    
  28 C28            6.5939    -4.9099    -6.8037 C.ar    
  29 C29            4.4014    -5.9681    -3.0572 C.3     
  30 H30            3.1298    -4.2656    -3.4140 H       
  31 Cl31           5.6175    -5.4084    -9.2785 Cl      
  32 H32           -0.8734     1.8890     0.2287 H       
  33 H33           -0.8734    -0.5923     0.1158 H       
  34 H34            1.2602    -1.8006     0.0475 H       
  35 H35            1.2213     3.1073     0.2806 H       
  36 H36            5.7912    -0.5190     0.0861 H       
  37 H37            6.8741     3.9867     0.2949 H       
  38 H38            4.5340    -2.5754     0.5840 H       
  39 H39            2.7601    -2.5850     0.4373 H       
  40 H40            3.2636    -4.6033    -0.9704 H       
  41 H41            5.6833    -1.7212    -4.0626 H       
  42 H42            3.9310    -2.0331    -4.0195 H       
  43 H43            4.6334    -0.7865    -2.0056 H       
  44 H44            5.8171    -2.0589    -1.6190 H       
  45 H45            7.3571    -4.5136    -4.8473 H       
  46 H46            3.1770    -3.8084    -5.4125 H       
  47 H47            3.3796    -4.5181    -7.7603 H       
  48 H48            7.5511    -5.2181    -7.1974 H       
  49 H49            3.6819    -6.5279    -2.4596 H       
  50 H50            4.3312    -6.2821    -4.0986 H       
  51 H51            5.4085    -6.1597    -2.6869 H       
@<TRIPOS>BOND
   1    1    2 1
   2    1    6 2
   3    1   32 1
   4    2    3 2
   5    2   33 1
   6    3    4 1
   7    3   34 1
   8    4    5 1
   9    4    7 2
  10    5    6 1
  11    5   10 am
  12    6   35 1
  13    7   15 1
  14    7    8 1
  15    8    9 2
  16    8   36 1
  17    9   10 1
  18    9   12 1
  19   10   11 2
  20   12   13 1
  21   12   14 2
  22   13   37 1
  23   15   16 1
  24   15   38 1
  25   15   39 1
  26   16   17 1
  27   16   21 1
  28   17   18 1
  29   17   22 1
  30   17   40 1
  31   18   19 1
  32   18   29 1
  33   18   30 1
  34   19   20 1
  35   19   23 1
  36   20   21 1
  37   20   41 1
  38   20   42 1
  39   21   43 1
  40   21   44 1
  41   23   24 ar
  42   23   25 ar
  43   24   28 ar
  44   24   45 1
  45   25   26 ar
  46   25   46 1
  47   26   27 ar
  48   26   47 1
  49   27   28 ar
  50   27   31 1
  51   28   48 1
  52   29   49 1
  53   29   50 1
  54   29   51 1

#	End of record

