#	Name: ASD00310268
#	Creating user name:	WinNT
#	Creation time:	15. 06. 2019 18:34

#	Modifying user name:	WinNT
#	Modification time:	15. 06. 2019 18:34

#	Program:	/corina/corina34_cracker 3.40 0067  02.08.2006

@<TRIPOS>MOLECULE
ASD00310268
  52   57    0    0    0
SMALL
NO_CHARGES


@<TRIPOS>ATOM
   1 Cl1            7.9030     5.1954     5.2827 Cl      
   2 O2            -0.0175     1.4382     0.0099 O.3     
   3 O3             0.5583    -0.5227     2.2520 O.3     
   4 O4             2.1530     1.4170     2.2729 O.3     
   5 O5            -2.1277     0.5655     1.0547 O.3     
   6 N6             3.5453     2.6488     3.8046 N.pl3   
   7 N7             4.3263     2.2119     1.8075 N.2     
   8 N8             6.5158     3.3087     2.0894 N.ar    
   9 C9             1.1710    -0.3891     0.9530 C.3     
  10 C10            0.0021    -0.0041     0.0020 C.3     
  11 C11            2.0744     0.8625     0.9582 C.3     
  12 C12           -1.2566    -0.5202     0.7313 C.3     
  13 C13            1.3674     1.8446    -0.0011 C.3     
  14 C14           -0.7080    -1.1745     2.0180 C.3     
  15 C15            3.2960     2.0610     2.6002 C.2     
  16 C16            4.8150     3.1943     3.7381 C.ar    
  17 C17            5.3014     2.9046     2.4497 C.ar    
  18 C18            5.6095     3.9037     4.6286 C.ar    
  19 C19            7.2934     3.9873     2.9200 C.ar    
  20 C20            6.8668     4.3052     4.2115 C.ar    
  21 C21            8.6397     4.4159     2.4714 C.ar    
  22 C22            9.3809     3.6027     1.6141 C.ar    
  23 C23            9.1631     5.6350     2.9020 C.ar    
  24 C24           11.1573     5.2173     1.6325 C.ar    
  25 C25           10.6318     4.0011     1.1974 C.ar    
  26 C26           10.4140     6.0331     2.4851 C.ar    
  27 C27           12.5045     5.6458     1.1841 C.ar    
  28 C28           13.0323     6.8609     1.6174 C.ar    
  29 C29           13.2498     4.8324     0.3324 C.ar    
  30 C30           14.2864     7.2546     1.1969 C.ar    
  31 C31           14.5028     5.2363    -0.0817 C.ar    
  32 C32           15.0191     6.4461     0.3466 C.ar    
  33 H33            1.6917    -1.2937     0.6390 H       
  34 H34            0.1180    -0.4172    -0.9999 H       
  35 H35            3.0699     0.6159     0.5891 H       
  36 H36           -1.7773    -1.2563     0.1189 H       
  37 H37            1.7805     1.7572    -1.0060 H       
  38 H38            1.4656     2.8674     0.3628 H       
  39 H39           -0.5621    -2.2441     1.8674 H       
  40 H40           -1.3861    -0.9970     2.8528 H       
  41 H41           -2.9353     0.2983     1.5146 H       
  42 H42            2.9435     2.6820     4.5646 H       
  43 H43            5.2552     4.1368     5.6219 H       
  44 H44            8.9741     2.6606     1.2773 H       
  45 H45            8.5873     6.2670     3.5620 H       
  46 H46           11.2059     3.3713     0.5339 H       
  47 H47           10.8193     6.9770     2.8185 H       
  48 H48           12.4608     7.4933     2.2807 H       
  49 H49           12.8477     3.8877    -0.0026 H       
  50 H50           14.6964     8.1959     1.5320 H       
  51 H51           15.0813     4.6068    -0.7417 H       
  52 H52           15.9998     6.7585     0.0195 H       
@<TRIPOS>BOND
   1    1   20 1
   2    2   10 1
   3    2   13 1
   4    3    9 1
   5    3   14 1
   6    4   15 1
   7    4   11 1
   8    5   41 1
   9    5   12 1
  10    6   15 1
  11    6   16 1
  12    6   42 1
  13    7   15 2
  14    7   17 1
  15    8   17 ar
  16    8   19 ar
  17    9   10 1
  18    9   33 1
  19    9   11 1
  20   10   12 1
  21   10   34 1
  22   11   13 1
  23   11   35 1
  24   12   14 1
  25   12   36 1
  26   13   37 1
  27   13   38 1
  28   14   39 1
  29   14   40 1
  30   16   17 ar
  31   16   18 ar
  32   18   20 ar
  33   18   43 1
  34   19   20 ar
  35   19   21 1
  36   21   22 ar
  37   21   23 ar
  38   22   25 ar
  39   22   44 1
  40   23   26 ar
  41   23   45 1
  42   24   25 ar
  43   24   26 ar
  44   24   27 1
  45   25   46 1
  46   26   47 1
  47   27   28 ar
  48   27   29 ar
  49   28   30 ar
  50   28   48 1
  51   29   31 ar
  52   29   49 1
  53   30   32 ar
  54   30   50 1
  55   31   32 ar
  56   31   51 1
  57   32   52 1

#	End of record

