#	Name: ASD09740575
#	Creating user name:	WinNT
#	Creation time:	15. 06. 2019 21:23

#	Modifying user name:	WinNT
#	Modification time:	15. 06. 2019 21:23

#	Program:	/corina/corina34_cracker 3.40 0067  02.08.2006

@<TRIPOS>MOLECULE
ASD09740575
  58   61    0    0    0
SMALL
NO_CHARGES


@<TRIPOS>ATOM
   1 N1            -1.1252     1.4307    -0.6548 N.2     
   2 C2            -0.8727     0.1498    -0.5499 C.2     
   3 C3            -0.1025     2.2341    -0.7439 C.2     
   4 S4             1.3837     1.2899    -0.6923 S.3     
   5 C5             0.4352    -0.1885    -0.5467 C.2     
   6 C6            -0.1780     3.7044    -0.8694 C.ar    
   7 C7            -1.4179     4.3380    -0.8995 C.ar    
   8 C8             0.9953     4.4601    -0.9520 C.ar    
   9 C9             0.9308     5.8319    -1.0686 C.ar    
  10 C10           -0.2991     6.4733    -1.1045 C.ar    
  11 C11           -1.4831     5.7254    -1.0175 C.ar    
  12 O12           -0.3567     7.8238    -1.2185 O.3     
  13 C13            0.8842     8.5316    -1.1809 C.3     
  14 C14            1.4985     8.5588    -2.5819 C.3     
  15 C15            0.6397     9.9644    -0.7033 C.3     
  16 C16           -2.7538     6.3846    -1.0547 C.1     
  17 N17           -3.7619     6.9075    -1.0843 N.1     
  18 C18            0.9765    -1.5596    -0.4397 C.ar    
  19 C19            1.9378    -2.0057    -1.3513 C.ar    
  20 C20            2.4390    -3.2868    -1.2460 C.ar    
  21 C21            1.9884    -4.1252    -0.2383 C.ar    
  22 C22            1.0375    -3.6890     0.6656 C.ar    
  23 C23            0.5328    -2.4085     0.5747 C.ar    
  24 C24            2.5828    -1.2967    -2.5226 C.3     
  25 C25            3.8424    -2.1258    -2.8522 C.3     
  26 C26            3.4569    -3.5298    -2.3402 C.3     
  27 N27            4.6333    -4.2137    -1.7973 N.am    
  28 C28            4.6742    -5.5604    -1.7639 C.2     
  29 N29            5.7941    -6.1907    -1.3576 N.am    
  30 O30            3.7009    -6.2067    -2.1004 O.2     
  31 C31            5.8807    -7.6512    -1.4322 C.3     
  32 C32            6.9248    -5.4152    -0.8414 C.3     
  33 H33           -1.6582    -0.5872    -0.4708 H       
  34 H34           -2.3256     3.7566    -0.8321 H       
  35 H35            1.9559     3.9672    -0.9239 H       
  36 H36            1.8409     6.4099    -1.1320 H       
  37 H37            1.5671     8.0313    -0.4944 H       
  38 H38            0.8155     9.0591    -3.2684 H       
  39 H39            2.4450     9.0987    -2.5532 H       
  40 H40            1.6726     7.5380    -2.9222 H       
  41 H41            0.2021     9.9450     0.2948 H       
  42 H42            1.5862    10.5043    -0.6746 H       
  43 H43           -0.0432    10.4648    -1.3898 H       
  44 H44            2.3830    -5.1274    -0.1588 H       
  45 H45            0.6927    -4.3502     1.4468 H       
  46 H46           -0.2097    -2.0673     1.2807 H       
  47 H47            1.9051    -1.2828    -3.3762 H       
  48 H48            2.8612    -0.2806    -2.2431 H       
  49 H49            4.0256    -2.1419    -3.9266 H       
  50 H50            4.7102    -1.7423    -2.3156 H       
  51 H51            3.0145    -4.1175    -3.1446 H       
  52 H52            5.3827    -3.6972    -1.4619 H       
  53 H53            6.2871    -7.9421    -2.4009 H       
  54 H54            6.5333    -8.0174    -0.6396 H       
  55 H55            4.8862    -8.0808    -1.3116 H       
  56 H56            6.6440    -4.3642    -0.7742 H       
  57 H57            7.1958    -5.7829     0.1483 H       
  58 H58            7.7757    -5.5217    -1.5142 H       
@<TRIPOS>BOND
   1    1    2 1
   2    1    3 2
   3    2    5 2
   4    2   33 1
   5    3    4 1
   6    3    6 1
   7    4    5 1
   8    5   18 1
   9    6    7 ar
  10    6    8 ar
  11    7   11 ar
  12    7   34 1
  13    8    9 ar
  14    8   35 1
  15    9   10 ar
  16    9   36 1
  17   10   11 ar
  18   10   12 1
  19   11   16 1
  20   12   13 1
  21   13   14 1
  22   13   15 1
  23   13   37 1
  24   14   38 1
  25   14   39 1
  26   14   40 1
  27   15   41 1
  28   15   42 1
  29   15   43 1
  30   16   17 3
  31   18   19 ar
  32   18   23 ar
  33   19   20 ar
  34   19   24 1
  35   20   21 ar
  36   20   26 1
  37   21   22 ar
  38   21   44 1
  39   22   23 ar
  40   22   45 1
  41   23   46 1
  42   24   25 1
  43   24   47 1
  44   24   48 1
  45   25   26 1
  46   25   49 1
  47   25   50 1
  48   26   27 1
  49   26   51 1
  50   27   28 am
  51   27   52 1
  52   28   29 am
  53   28   30 2
  54   29   31 1
  55   29   32 1
  56   31   53 1
  57   31   54 1
  58   31   55 1
  59   32   56 1
  60   32   57 1
  61   32   58 1

#	End of record

