#	Name: ASD01911564
#	Creating user name:	WinNT
#	Creation time:	15. 06. 2019 19:58

#	Modifying user name:	WinNT
#	Modification time:	15. 06. 2019 19:58

#	Program:	/corina/corina34_cracker 3.40 0067  02.08.2006

@<TRIPOS>MOLECULE
ASD01911564
  38   40    0    0    0
SMALL
NO_CHARGES


@<TRIPOS>ATOM
   1 N1             0.0345     1.1471    -0.6981 N.am    
   2 C2             0.0021    -0.0041     0.0020 C.2     
   3 C3            -1.2508    -0.7543     0.1205 C.2     
   4 C4            -1.3862    -2.1135     0.0310 C.2     
   5 S5            -2.8471    -0.0659     0.4110 S.3     
   6 C6            -3.5481    -1.6813     0.3771 C.2     
   7 N7            -2.6014    -2.5626     0.1691 N.2     
   8 C8            -4.9363    -1.9846     0.5542 C.1     
   9 C9            -6.0745    -2.2333     0.6993 C.1     
  10 C10           -7.4627    -2.5366     0.8764 C.ar    
  11 C11           -7.9040    -3.8627     0.8289 C.ar    
  12 C12           -9.2421    -4.1468     1.0008 C.ar    
  13 C13          -10.1481    -3.1233     1.2194 C.ar    
  14 C14           -9.7192    -1.8086     1.2677 C.ar    
  15 C15           -8.3830    -1.5089     1.1033 C.ar    
  16 O16            1.0136    -0.4204     0.5358 O.2     
  17 C17           -9.7198    -5.5752     0.9500 C.3     
  18 C18           -1.1402     1.6059    -1.4564 C.3     
  19 C19           -1.4218     3.0640    -1.0762 C.3     
  20 O20           -0.2256     3.8309    -1.2334 O.3     
  21 C21            0.8476     3.4224    -0.3818 C.3     
  22 C22            1.2436     1.9855    -0.7218 C.3     
  23 H23           -0.5446    -2.7679    -0.1422 H       
  24 H24           -7.1984    -4.6622     0.6577 H       
  25 H25          -11.1951    -3.3520     1.3526 H       
  26 H26          -10.4320    -1.0154     1.4387 H       
  27 H27           -8.0497    -0.4823     1.1413 H       
  28 H28           -9.6866    -6.0052     1.9511 H       
  29 H29          -10.7434    -5.6029     0.5764 H       
  30 H30           -9.0748    -6.1506     0.2859 H       
  31 H31           -0.9368     1.5379    -2.5250 H       
  32 H32           -2.0027     0.9882    -1.2063 H       
  33 H33           -2.1998     3.4658    -1.7254 H       
  34 H34           -1.7516     3.1125    -0.0384 H       
  35 H35            1.7024     4.0821    -0.5314 H       
  36 H36            0.5261     3.4722     0.6585 H       
  37 H37            1.9609     1.6188     0.0125 H       
  38 H38            1.6870     1.9526    -1.7170 H       
@<TRIPOS>BOND
   1    1    2 am
   2    1   18 1
   3    1   22 1
   4    2    3 1
   5    2   16 2
   6    3    4 2
   7    3    5 1
   8    4    7 1
   9    4   23 1
  10    5    6 1
  11    6    7 2
  12    6    8 1
  13    8    9 3
  14    9   10 1
  15   10   11 ar
  16   10   15 ar
  17   11   12 ar
  18   11   24 1
  19   12   13 ar
  20   12   17 1
  21   13   14 ar
  22   13   25 1
  23   14   15 ar
  24   14   26 1
  25   15   27 1
  26   17   28 1
  27   17   29 1
  28   17   30 1
  29   18   19 1
  30   18   31 1
  31   18   32 1
  32   19   20 1
  33   19   33 1
  34   19   34 1
  35   20   21 1
  36   21   22 1
  37   21   35 1
  38   21   36 1
  39   22   37 1
  40   22   38 1

#	End of record

