#	Name: ASD01230723
#	Creating user name:	WinNT
#	Creation time:	15. 06. 2019 19:14

#	Modifying user name:	WinNT
#	Modification time:	15. 06. 2019 19:14

#	Program:	/corina/corina34_cracker 3.40 0067  02.08.2006

@<TRIPOS>MOLECULE
ASD01230723
  49   52    0    0    0
SMALL
NO_CHARGES


@<TRIPOS>ATOM
   1 C1             1.1306     0.8537    -2.8650 C.3     
   2 N2             0.7554    -0.3852    -2.1732 N.am    
   3 C3             1.3561    -1.6603    -2.5784 C.3     
   4 C4             2.7275    -1.4015    -3.2121 C.3     
   5 N5             2.5454    -0.4996    -4.3584 N.pl3   
   6 C6             1.6136     0.4993    -4.2604 C.2     
   7 C7             3.3797    -0.6555    -5.5479 C.3     
   8 C8             2.4935    -0.7152    -6.7927 C.3     
   9 S9             1.4310     0.7522    -6.8389 S.o2    
  10 N10            1.1056     1.1053    -5.2645 N.am    
  11 C11            2.2357     1.5424    -2.1064 C.ar    
  12 C12            2.9934     0.8317    -1.1939 C.ar    
  13 O13            2.1614     1.8790    -7.3036 O.2     
  14 O14            0.1624     0.4288    -7.3915 O.2     
  15 C15            2.4938     2.8826    -2.3282 C.ar    
  16 C16            3.5062     3.5163    -1.6342 C.ar    
  17 C17            4.2643     2.8068    -0.7138 C.ar    
  18 C18            4.0069     1.4606    -0.4972 C.ar    
  19 O19            5.2608     3.4278    -0.0297 O.3     
  20 C20            5.4449     4.7578    -0.2383 C.ar    
  21 C21            4.9795     5.6779     0.6902 C.ar    
  22 C22           -0.1400    -0.3511    -1.1664 C.2     
  23 C23            6.1038     5.1980    -1.3774 C.ar    
  24 C24            6.2897     6.5507    -1.5870 C.ar    
  25 C25            5.8199     7.4657    -0.6630 C.ar    
  26 C26            5.1680     7.0295     0.4758 C.ar    
  27 C27           -0.5246    -1.6236    -0.4566 C.3     
  28 O28           -0.6361     0.7037    -0.8316 O.2     
  29 H29            0.2652     1.5131    -2.9304 H       
  30 H30            1.4750    -2.3000    -1.7039 H       
  31 H31            0.7082    -2.1530    -3.3033 H       
  32 H32            3.3883    -0.9365    -2.4805 H       
  33 H33            3.1591    -2.3434    -3.5509 H       
  34 H34            4.0604     0.1921    -5.6273 H       
  35 H35            3.9563    -1.5771    -5.4684 H       
  36 H36            3.1196    -0.7396    -7.6846 H       
  37 H37            1.8747    -1.6118    -6.7565 H       
  38 H38            2.7924    -0.2160    -1.0255 H       
  39 H39            1.9036     3.4343    -3.0449 H       
  40 H40            3.7076     4.5630    -1.8080 H       
  41 H41            4.5955     0.9061     0.2186 H       
  42 H42            4.4700     5.3377     1.5796 H       
  43 H43            6.4712     4.4837    -2.0993 H       
  44 H44            6.8027     6.8938    -2.4733 H       
  45 H45            5.9662     8.5228    -0.8288 H       
  46 H46            4.8017     7.7462     1.1958 H       
  47 H47            0.1453    -1.7854     0.3878 H       
  48 H48           -1.5503    -1.5430    -0.0965 H       
  49 H49           -0.4472    -2.4628    -1.1479 H       
@<TRIPOS>BOND
   1    1    2 1
   2    1   11 1
   3    1    6 1
   4    1   29 1
   5    2    3 1
   6    2   22 am
   7    3    4 1
   8    3   30 1
   9    3   31 1
  10    4    5 1
  11    4   32 1
  12    4   33 1
  13    5    6 1
  14    5    7 1
  15    6   10 2
  16    7    8 1
  17    7   34 1
  18    7   35 1
  19    8    9 1
  20    8   36 1
  21    8   37 1
  22    9   10 am
  23    9   13 2
  24    9   14 2
  25   11   12 ar
  26   11   15 ar
  27   12   18 ar
  28   12   38 1
  29   15   16 ar
  30   15   39 1
  31   16   17 ar
  32   16   40 1
  33   17   18 ar
  34   17   19 1
  35   18   41 1
  36   19   20 1
  37   20   21 ar
  38   20   23 ar
  39   21   26 ar
  40   21   42 1
  41   22   27 1
  42   22   28 2
  43   23   24 ar
  44   23   43 1
  45   24   25 ar
  46   24   44 1
  47   25   26 ar
  48   25   45 1
  49   26   46 1
  50   27   47 1
  51   27   48 1
  52   27   49 1

#	End of record

