#	Name: ASD05430175
#	Creating user name:	WinNT
#	Creation time:	15. 06. 2019 20:59

#	Modifying user name:	WinNT
#	Modification time:	15. 06. 2019 20:59

#	Program:	/corina/corina34_cracker 3.40 0067  02.08.2006

@<TRIPOS>MOLECULE
ASD05430175
  62   68    0    0    0
SMALL
NO_CHARGES


@<TRIPOS>ATOM
   1 C1            -0.0168     1.3902     0.0097 C.ar    
   2 C2             0.0021    -0.0041     0.0020 C.ar    
   3 C3            -1.2038    -0.6940     0.0103 C.ar    
   4 C4            -2.3828     0.0369     0.0259 C.ar    
   5 C5            -2.3237     1.4165     0.0327 C.ar    
   6 N6            -1.1640     2.0465     0.0297 N.ar    
   7 C7            -3.6052     1.9647    -2.5642 C.3     
   8 C8            -4.2746     2.4944    -1.2897 C.3     
   9 C9            -3.6021     2.2144     0.0492 C.3     
  10 C10           -2.9070     3.1378    -3.2652 C.3     
  11 C11           -3.8220     4.2982    -3.6751 C.3     
  12 N12           -4.6615     4.6644    -2.5364 N.pl3   
  13 C13           -4.9691     3.8240    -1.4771 C.2     
  14 N14           -5.8946     4.3331    -0.7508 N.2     
  15 C15           -5.9711     6.4910    -3.5013 C.ar    
  16 N16           -5.8032     5.8686    -4.6517 N.ar    
  17 C17           -6.7396     7.6367    -3.4216 C.ar    
  18 C18           -7.3378     8.1309    -4.5704 C.ar    
  19 C19           -7.1392     7.4496    -5.7637 C.ar    
  20 C20           -6.3558     6.3079    -5.7652 C.ar    
  21 N21            1.2210    -0.7000    -0.0143 N.pl3   
  22 F22           -7.7031     7.8944    -6.9080 F       
  23 C23           -4.8950     1.4865    -0.3288 C.3     
  24 C24            2.2615    -0.4858    -0.8602 C.2     
  25 C25            1.5880    -1.7201     0.8244 C.2     
  26 C26            2.8293    -2.0961     0.4615 C.2     
  27 N27            3.2155    -1.3273    -0.5673 N.2     
  28 C28            3.6451    -3.1883     1.1038 C.3     
  29 O29            1.1525     2.0791     0.0022 O.3     
  30 C30            1.0652     3.5054     0.0107 C.3     
  31 C31           -1.4845     3.4796    -2.8235 C.3     
  32 C32           -1.7260     2.8118    -4.1791 C.3     
  33 C33           -5.3217     5.9425    -2.2568 C.3     
  34 O34           -6.3181     5.5823    -1.2771 O.3     
  35 C35           -4.3271     6.9507    -1.6780 C.3     
  36 H36           -1.2229    -1.7738     0.0043 H       
  37 H37           -3.3375    -0.4681     0.0323 H       
  38 H38           -2.8707     1.2026    -2.3038 H       
  39 H39           -4.3595     1.5380    -3.2252 H       
  40 H40           -3.6642     2.9872     0.8153 H       
  41 H41           -3.2156     5.1540    -3.9717 H       
  42 H42           -4.4524     3.9890    -4.5089 H       
  43 H43           -6.8728     8.1409    -2.4758 H       
  44 H44           -7.9441     9.0241    -4.5379 H       
  45 H45           -6.1954     5.7714    -6.6888 H       
  46 H46           -5.8081     1.7805     0.1888 H       
  47 H47           -4.8207     0.4308    -0.5894 H       
  48 H48            2.2942     0.2565    -1.6439 H       
  49 H49            0.9955    -2.1414     1.6230 H       
  50 H50            3.4431    -4.1351     0.6028 H       
  51 H51            4.7050    -2.9497     1.0158 H       
  52 H52            3.3773    -3.2703     2.1572 H       
  53 H53            0.5217     3.8414    -0.8723 H       
  54 H54            0.5387     3.8319     0.9075 H       
  55 H55            2.0687     3.9309     0.0034 H       
  56 H56           -1.1960     4.5308    -2.8246 H       
  57 H57           -1.0427     2.8713    -2.0343 H       
  58 H58           -1.4431     1.7641    -4.2816 H       
  59 H59           -1.5964     3.4235    -5.0719 H       
  60 H60           -3.5226     7.1194    -2.3938 H       
  61 H61           -4.8388     7.8922    -1.4780 H       
  62 H62           -3.9113     6.5589    -0.7497 H       
@<TRIPOS>BOND
   1    1    2 ar
   2    1   29 1
   3    1    6 ar
   4    2    3 ar
   5    2   21 1
   6    3    4 ar
   7    3   36 1
   8    4    5 ar
   9    4   37 1
  10    5    6 ar
  11    5    9 1
  12    7    8 1
  13    7   10 1
  14    7   38 1
  15    7   39 1
  16    8    9 1
  17    8   23 1
  18    8   13 1
  19    9   23 1
  20    9   40 1
  21   10   11 1
  22   10   31 1
  23   10   32 1
  24   11   12 1
  25   11   41 1
  26   11   42 1
  27   12   13 1
  28   12   33 1
  29   13   14 2
  30   14   34 1
  31   15   16 ar
  32   15   17 ar
  33   15   33 1
  34   16   20 ar
  35   17   18 ar
  36   17   43 1
  37   18   19 ar
  38   18   44 1
  39   19   20 ar
  40   19   22 1
  41   20   45 1
  42   21   24 1
  43   21   25 1
  44   23   46 1
  45   23   47 1
  46   24   27 2
  47   24   48 1
  48   25   26 2
  49   25   49 1
  50   26   27 1
  51   26   28 1
  52   28   50 1
  53   28   51 1
  54   28   52 1
  55   29   30 1
  56   30   53 1
  57   30   54 1
  58   30   55 1
  59   31   32 1
  60   31   56 1
  61   31   57 1
  62   32   58 1
  63   32   59 1
  64   33   34 1
  65   33   35 1
  66   35   60 1
  67   35   61 1
  68   35   62 1

#	End of record

