#	Name: ASD01918176
#	Creating user name:	WinNT
#	Creation time:	15. 06. 2019 20:10

#	Modifying user name:	WinNT
#	Modification time:	15. 06. 2019 20:10

#	Program:	/corina/corina34_cracker 3.40 0067  02.08.2006

@<TRIPOS>MOLECULE
ASD01918176
  48   51    0    0    0
SMALL
NO_CHARGES


@<TRIPOS>ATOM
   1 C1             0.5092     2.0624    -0.5523 C.ar    
   2 C2             0.7760     0.7508    -0.9683 C.ar    
   3 C3             2.0649     0.3641    -1.1943 C.ar    
   4 C4             3.1198     1.2588    -1.0157 C.ar    
   5 C5             2.8929     2.5388    -0.6126 C.ar    
   6 C6             1.5778     2.9722    -0.3709 C.ar    
   7 N7             1.3278     4.2259     0.0251 N.ar    
   8 C8             0.1056     4.6456     0.2543 C.ar    
   9 C9            -0.9959     3.8144     0.0993 C.ar    
  10 C10           -0.8143     2.5041    -0.3130 C.ar    
  11 S11           -2.6174     4.4249     0.4195 S.o2    
  12 O12           -3.2517     3.4626     1.2506 O.2     
  13 O13           -2.4673     5.7897     0.7855 O.2     
  14 C14           -3.4907     4.4134    -1.1109 C.ar    
  15 C15           -3.3254     5.4518    -2.0084 C.ar    
  16 C16           -4.3362     3.3633    -1.4157 C.ar    
  17 C17           -5.0216     3.3528    -2.6163 C.ar    
  18 C18           -4.8618     4.3936    -3.5129 C.ar    
  19 C19           -4.0106     5.4431    -3.2098 C.ar    
  20 N20           -1.8947     1.6511    -0.4821 N.3     
  21 C21           -3.2782     0.3839    -2.0571 C.3     
  22 C22           -3.2446    -0.8222    -1.1143 C.3     
  23 C23           -3.0882    -0.3292     0.3269 C.3     
  24 C24           -1.8132     0.5098     0.4384 C.3     
  25 C25           -1.9977     1.2023    -1.8765 C.3     
  26 C26           -4.5490    -1.6108    -1.2463 C.3     
  27 Cl27          -3.8031     6.7465    -4.3374 Cl      
  28 F28            2.3221    -0.9001    -1.5952 F       
  29 Cl29          -5.7222     4.3809    -5.0207 Cl      
  30 H30           -0.0338     0.0502    -1.1087 H       
  31 H31            4.1322     0.9308    -1.1997 H       
  32 H32            3.7208     3.2193    -0.4786 H       
  33 H33           -0.0478     5.6661     0.5728 H       
  34 H34           -2.6615     6.2699    -1.7714 H       
  35 H35           -4.4612     2.5503    -0.7158 H       
  36 H36           -5.6816     2.5316    -2.8542 H       
  37 H37           -3.3465     0.0378    -3.0884 H       
  38 H38           -4.1430     1.0048    -1.8230 H       
  39 H39           -2.4022    -1.4636    -1.3733 H       
  40 H40           -3.9500     0.2804     0.5985 H       
  41 H41           -3.0208    -1.1848     0.9989 H       
  42 H42           -0.9506    -0.1043     0.1800 H       
  43 H43           -1.7065     0.8742     1.4602 H       
  44 H44           -2.0249     2.0696    -2.5361 H       
  45 H45           -1.1342     0.5849    -2.1240 H       
  46 H46           -4.6622    -1.9565    -2.2738 H       
  47 H47           -4.5242    -2.4691    -0.5748 H       
  48 H48           -5.3899    -0.9687    -0.9842 H       
@<TRIPOS>BOND
   1    1    2 ar
   2    1    6 ar
   3    1   10 ar
   4    2    3 ar
   5    2   30 1
   6    3    4 ar
   7    3   28 1
   8    4    5 ar
   9    4   31 1
  10    5    6 ar
  11    5   32 1
  12    6    7 ar
  13    7    8 ar
  14    8    9 ar
  15    8   33 1
  16    9   10 ar
  17    9   11 1
  18   10   20 1
  19   11   12 2
  20   11   13 2
  21   11   14 1
  22   14   16 ar
  23   14   15 ar
  24   15   19 ar
  25   15   34 1
  26   16   17 ar
  27   16   35 1
  28   17   18 ar
  29   17   36 1
  30   18   19 ar
  31   18   29 1
  32   19   27 1
  33   20   25 1
  34   20   24 1
  35   21   22 1
  36   21   25 1
  37   21   37 1
  38   21   38 1
  39   22   23 1
  40   22   26 1
  41   22   39 1
  42   23   24 1
  43   23   40 1
  44   23   41 1
  45   24   42 1
  46   24   43 1
  47   25   44 1
  48   25   45 1
  49   26   46 1
  50   26   47 1
  51   26   48 1

#	End of record

