#	Name: ASD01230065
#	Creating user name:	WinNT
#	Creation time:	15. 06. 2019 19:11

#	Modifying user name:	WinNT
#	Modification time:	15. 06. 2019 19:11

#	Program:	/corina/corina34_cracker 3.40 0067  02.08.2006

@<TRIPOS>MOLECULE
ASD01230065
  53   56    0    0    0
SMALL
NO_CHARGES


@<TRIPOS>ATOM
   1 C1            -0.0168     1.3841     0.0097 C.ar    
   2 C2             0.0021    -0.0041     0.0020 C.ar    
   3 C3            -1.1829    -0.7154     0.0100 C.ar    
   4 C4            -2.3922    -0.0495     0.0256 C.ar    
   5 C5            -2.4200     1.3439     0.0333 C.ar    
   6 C6            -1.2252     2.0604     0.0306 C.ar    
   7 O7             1.1509     2.0795     0.0022 O.3     
   8 C8             1.0569     3.5054     0.0108 C.3     
   9 C9            -3.7178     2.0619     0.0496 C.ar    
  10 N10           -3.7571     3.3883    -0.0428 N.ar    
  11 C11           -4.9140     4.0312    -0.0290 C.ar    
  12 N12           -6.0677     3.3873     0.0763 N.ar    
  13 C13           -6.1053     2.0688     0.1720 C.ar    
  14 C14           -4.9190     1.3547     0.1564 C.ar    
  15 C15           -4.9195     5.5134    -0.1337 C.2     
  16 N16           -3.8700     6.2857    -0.2427 N.2     
  17 O17           -4.2074     7.4487    -0.3081 O.3     
  18 C18           -5.5448     7.5407    -0.2457 C.2     
  19 N19           -6.0084     6.3097    -0.1397 N.2     
  20 C20           -6.3456     8.7826    -0.2928 C.ar    
  21 C21           -7.7380     8.7221    -0.2162 C.ar    
  22 C22           -5.7123    10.0207    -0.4082 C.ar    
  23 C23           -8.4793     9.8845    -0.2608 C.ar    
  24 C24           -7.8455    11.1087    -0.3811 C.ar    
  25 C25           -6.4656    11.1760    -0.4517 C.ar    
  26 S26           -5.6684    12.7399    -0.6047 S.o2    
  27 O27           -4.3997    12.4877    -1.1930 O.2     
  28 O28           -6.6256    13.6245    -1.1708 O.2     
  29 N29           -5.3717    13.2910     0.9284 N.am    
  30 C30           -7.4250     1.3510     0.2911 C.3     
  31 F31           -8.4701     2.2723     0.1640 F       
  32 F32           -7.5256     0.3892    -0.7199 F       
  33 F33           -7.5044     0.7251     1.5398 F       
  34 C34            1.3185    -0.7375    -0.0155 C.3     
  35 F35            1.0839    -2.1166    -0.0205 F       
  36 F36            2.0350    -0.3822    -1.1633 F       
  37 F37            2.0586    -0.3944     1.1211 F       
  38 C38            2.4627     4.1092     0.0006 C.3     
  39 F39            3.1405     3.6934    -1.1504 F       
  40 F40            2.3707     5.5051     0.0090 F       
  41 F41            3.1623     3.6812     1.1340 F       
  42 H42           -1.1628    -1.7952     0.0036 H       
  43 H43           -3.3164    -0.6083     0.0314 H       
  44 H44           -1.2413     3.1403     0.0366 H       
  45 H45            0.5119     3.8389    -0.8722 H       
  46 H46            0.5289     3.8293     0.9076 H       
  47 H47           -4.9212     0.2774     0.2327 H       
  48 H48           -8.2340     7.7672    -0.1227 H       
  49 H49           -4.6351    10.0746    -0.4631 H       
  50 H50           -9.5567     9.8391    -0.2020 H       
  51 H51           -8.4304    12.0159    -0.4159 H       
  52 H52           -5.6360    12.7584     1.6949 H       
  53 H53           -4.9335    14.1463     1.0601 H       
@<TRIPOS>BOND
   1    1    2 ar
   2    1    7 1
   3    1    6 ar
   4    2    3 ar
   5    2   34 1
   6    3    4 ar
   7    3   42 1
   8    4    5 ar
   9    4   43 1
  10    5    6 ar
  11    5    9 1
  12    6   44 1
  13    7    8 1
  14    8   38 1
  15    8   45 1
  16    8   46 1
  17    9   10 ar
  18    9   14 ar
  19   10   11 ar
  20   11   12 ar
  21   11   15 1
  22   12   13 ar
  23   13   14 ar
  24   13   30 1
  25   14   47 1
  26   15   16 2
  27   15   19 1
  28   16   17 1
  29   17   18 1
  30   18   19 2
  31   18   20 1
  32   20   21 ar
  33   20   22 ar
  34   21   23 ar
  35   21   48 1
  36   22   25 ar
  37   22   49 1
  38   23   24 ar
  39   23   50 1
  40   24   25 ar
  41   24   51 1
  42   25   26 1
  43   26   27 2
  44   26   28 2
  45   26   29 am
  46   29   52 1
  47   29   53 1
  48   30   31 1
  49   30   32 1
  50   30   33 1
  51   34   35 1
  52   34   36 1
  53   34   37 1
  54   38   39 1
  55   38   40 1
  56   38   41 1

#	End of record

