#	Name: ASD03092448
#	Creating user name:	WinNT
#	Creation time:	15. 06. 2019 20:32

#	Modifying user name:	WinNT
#	Modification time:	15. 06. 2019 20:32

#	Program:	/corina/corina34_cracker 3.40 0067  02.08.2006

@<TRIPOS>MOLECULE
ASD03092448
  65   68    0    0    0
SMALL
NO_CHARGES


@<TRIPOS>ATOM
   1 O1            -0.7625    -1.1320    -1.9286 O.3     
   2 C2             0.5640    -1.6796    -2.1737 C.3     
   3 C3             1.5701    -0.6199    -1.6792 C.3     
   4 C4             0.6576     0.5026    -1.1356 C.3     
   5 C5            -0.6902    -0.1785    -0.9823 C.2     
   6 C6             2.4369    -1.1801    -0.5811 C.2     
   7 O7             2.0717    -1.1134     0.5734 O.2     
   8 N8             3.6181    -1.7551    -0.8821 N.am    
   9 O9            -1.5388     0.0858    -0.1638 O.2     
  10 C10            0.7470    -2.9823    -1.3924 C.3     
  11 C11            0.7598    -1.9319    -3.6700 C.3     
  12 C12            4.4608    -2.2997     0.1854 C.3     
  13 S13            7.4347    -4.4254    -1.4379 S.3     
  14 C14            7.8272    -2.7915    -1.1243 C.2     
  15 N15            6.8101    -2.1763    -0.6000 N.2     
  16 C16            5.7157    -2.8815    -0.4127 C.2     
  17 C17            5.8118    -4.1702    -0.8016 C.2     
  18 C18            3.0596    -6.3526     0.5276 C.ar    
  19 C19            4.0485    -5.3937     0.4877 C.ar    
  20 C20            4.7454    -5.1864    -0.7103 C.ar    
  21 C21            4.4009    -5.9707    -1.8193 C.ar    
  22 C22            3.3986    -6.9074    -1.6892 C.ar    
  23 N23            2.7669    -7.0699    -0.5414 N.ar    
  24 C24            3.0179    -7.7577    -2.8738 C.3     
  25 C25            2.3065    -6.5904     1.8111 C.3     
  26 N26            9.0525    -2.2080    -1.3903 N.3     
  27 C27            9.9819    -3.1808    -1.9828 C.3     
  28 C28           11.3403    -2.5107    -2.2053 C.3     
  29 O29           11.1670    -1.3556    -3.0305 O.3     
  30 C30           10.2685    -0.3868    -2.4834 C.3     
  31 C31            8.8992    -1.0354    -2.2637 C.3     
  32 C32           10.1281     0.7863    -3.4556 C.3     
  33 C33           12.2881    -3.4939    -2.8952 C.3     
  34 H34            2.1807    -0.2539    -2.5046 H       
  35 H35            1.0197     0.8581    -0.1709 H       
  36 H36            0.5934     1.3242    -1.8490 H       
  37 H37            3.9102    -1.8085    -1.8056 H       
  38 H38            0.0530    -3.7332    -1.7703 H       
  39 H39            1.7698    -3.3387    -1.5147 H       
  40 H40            0.5485    -2.8032    -0.3357 H       
  41 H41            0.6287    -0.9977    -4.2161 H       
  42 H42            1.7643    -2.3171    -3.8451 H       
  43 H43            0.0260    -2.6604    -4.0147 H       
  44 H44            4.7253    -1.5036     0.8813 H       
  45 H45            3.9156    -3.0802     0.7162 H       
  46 H46            4.2824    -4.8104     1.3660 H       
  47 H47            4.9129    -5.8428    -2.7616 H       
  48 H48            3.6201    -8.6662    -2.8774 H       
  49 H49            1.9624    -8.0217    -2.8073 H       
  50 H50            3.1957    -7.2002    -3.7934 H       
  51 H51            1.4303    -5.9429     1.8435 H       
  52 H52            1.9903    -7.6324     1.8590 H       
  53 H53            2.9543    -6.3679     2.6590 H       
  54 H54           10.1004    -4.0286    -1.3080 H       
  55 H55            9.5863    -3.5273    -2.9376 H       
  56 H56           11.7606    -2.2122    -1.2449 H       
  57 H57           10.6575    -0.0265    -1.5310 H       
  58 H58            8.4862    -1.3475    -3.2229 H       
  59 H59            8.2273    -0.3170    -1.7939 H       
  60 H60            9.7372     0.4250    -4.4068 H       
  61 H61            9.4432     1.5243    -3.0380 H       
  62 H62           11.1039     1.2452    -3.6145 H       
  63 H63           11.8677    -3.7902    -3.8563 H       
  64 H64           13.2550    -3.0162    -3.0533 H       
  65 H65           12.4168    -4.3757    -2.2676 H       
@<TRIPOS>BOND
   1    1    2 1
   2    1    5 1
   3    2    3 1
   4    2   10 1
   5    2   11 1
   6    3    4 1
   7    3    6 1
   8    3   34 1
   9    4    5 1
  10    4   35 1
  11    4   36 1
  12    5    9 2
  13    6    7 2
  14    6    8 am
  15    8   12 1
  16    8   37 1
  17   10   38 1
  18   10   39 1
  19   10   40 1
  20   11   41 1
  21   11   42 1
  22   11   43 1
  23   12   16 1
  24   12   44 1
  25   12   45 1
  26   13   14 1
  27   13   17 1
  28   14   15 2
  29   14   26 1
  30   15   16 1
  31   16   17 2
  32   17   20 1
  33   18   19 ar
  34   18   23 ar
  35   18   25 1
  36   19   20 ar
  37   19   46 1
  38   20   21 ar
  39   21   22 ar
  40   21   47 1
  41   22   23 ar
  42   22   24 1
  43   24   48 1
  44   24   49 1
  45   24   50 1
  46   25   51 1
  47   25   52 1
  48   25   53 1
  49   26   27 1
  50   26   31 1
  51   27   28 1
  52   27   54 1
  53   27   55 1
  54   28   29 1
  55   28   33 1
  56   28   56 1
  57   29   30 1
  58   30   31 1
  59   30   32 1
  60   30   57 1
  61   31   58 1
  62   31   59 1
  63   32   60 1
  64   32   61 1
  65   32   62 1
  66   33   63 1
  67   33   64 1
  68   33   65 1

#	End of record

