#	Name: ASD01150001
#	Creating user name:	WinNT
#	Creation time:	15. 06. 2019 19:03

#	Modifying user name:	WinNT
#	Modification time:	15. 06. 2019 19:03

#	Program:	/corina/corina34_cracker 3.40 0067  02.08.2006

@<TRIPOS>MOLECULE
ASD01150001
  49   51    0    0    0
SMALL
NO_CHARGES


@<TRIPOS>ATOM
   1 C1             0.2119     1.2464    -0.5929 C.3     
   2 C2            -0.0518    -0.2606    -0.5852 C.3     
   3 C3            -1.4333    -0.5336     0.0129 C.3     
   4 N4             1.5384     1.5086    -1.1671 N.3     
   5 C5             1.8266     2.9488    -1.1907 C.3     
   6 C6             2.4000     3.3764     0.1618 C.3     
   7 C7             2.8290     3.2428    -2.2769 C.ar    
   8 C8             2.6896     4.3748    -3.0580 C.ar    
   9 C9             3.6091     4.6445    -4.0544 C.ar    
  10 C10            4.6681     3.7824    -4.2694 C.ar    
  11 C11            4.8079     2.6509    -3.4877 C.ar    
  12 C12            3.8909     2.3835    -2.4884 C.ar    
  13 C13           -1.7442    -2.0045    -0.0916 C.ar    
  14 C14           -0.8396    -2.9374     0.3799 C.ar    
  15 C15           -1.1247    -4.2866     0.2840 C.ar    
  16 C16           -2.3147    -4.7029    -0.2830 C.ar    
  17 C17           -3.2198    -3.7700    -0.7537 C.ar    
  18 C18           -2.9365    -2.4207    -0.6538 C.ar    
  19 C19           -1.4442    -0.1196     1.4618 C.ar    
  20 C20           -2.4346     0.7219     1.9328 C.ar    
  21 C21           -2.4445     1.1017     3.2619 C.ar    
  22 C22           -1.4643     0.6396     4.1202 C.ar    
  23 C23           -0.4744    -0.2026     3.6494 C.ar    
  24 C24           -0.4669    -0.5859     2.3212 C.ar    
  25 H25           -0.5489     1.7453    -1.1932 H       
  26 H26            0.1763     1.6267     0.4280 H       
  27 H27           -0.0162    -0.6409    -1.6061 H       
  28 H28            0.7091    -0.7595     0.0151 H       
  29 H29           -2.1848     0.0363    -0.5335 H       
  30 H30            2.2550     1.0045    -0.6667 H       
  31 H31            0.9069     3.5002    -1.3861 H       
  32 H32            2.6139     4.4450     0.1443 H       
  33 H33            1.6750     3.1637     0.9475 H       
  34 H34            3.3197     2.8249     0.3572 H       
  35 H35            1.8623     5.0483    -2.8900 H       
  36 H36            3.4999     5.5285    -4.6651 H       
  37 H37            5.3861     3.9927    -5.0483 H       
  38 H38            5.6351     1.9772    -3.6558 H       
  39 H39            4.0022     1.5014    -1.8753 H       
  40 H40            0.0901    -2.6121     0.8229 H       
  41 H41           -0.4177    -5.0154     0.6517 H       
  42 H42           -2.5372    -5.7571    -0.3586 H       
  43 H43           -4.1493    -4.0953    -1.1970 H       
  44 H44           -3.6452    -1.6918    -1.0182 H       
  45 H45           -3.2004     1.0828     1.2623 H       
  46 H46           -3.2179     1.7597     3.6298 H       
  47 H47           -1.4716     0.9369     5.1584 H       
  48 H48            0.2917    -0.5633     4.3198 H       
  49 H49            0.3043    -1.2468     1.9542 H       
@<TRIPOS>BOND
   1    1    2 1
   2    1    4 1
   3    1   25 1
   4    1   26 1
   5    2    3 1
   6    2   27 1
   7    2   28 1
   8    3   13 1
   9    3   19 1
  10    3   29 1
  11    4    5 1
  12    4   30 1
  13    5    6 1
  14    5    7 1
  15    5   31 1
  16    6   32 1
  17    6   33 1
  18    6   34 1
  19    7    8 ar
  20    7   12 ar
  21    8    9 ar
  22    8   35 1
  23    9   10 ar
  24    9   36 1
  25   10   11 ar
  26   10   37 1
  27   11   12 ar
  28   11   38 1
  29   12   39 1
  30   13   14 ar
  31   13   18 ar
  32   14   15 ar
  33   14   40 1
  34   15   16 ar
  35   15   41 1
  36   16   17 ar
  37   16   42 1
  38   17   18 ar
  39   17   43 1
  40   18   44 1
  41   19   20 ar
  42   19   24 ar
  43   20   21 ar
  44   20   45 1
  45   21   22 ar
  46   21   46 1
  47   22   23 ar
  48   22   47 1
  49   23   24 ar
  50   23   48 1
  51   24   49 1

#	End of record

