#	Name: ASD03730222
#	Creating user name:	WinNT
#	Creation time:	15. 06. 2019 20:44

#	Modifying user name:	WinNT
#	Modification time:	15. 06. 2019 20:44

#	Program:	/corina/corina34_cracker 3.40 0067  02.08.2006

@<TRIPOS>MOLECULE
ASD03730222
  67   73    0    0    0
SMALL
NO_CHARGES


@<TRIPOS>ATOM
   1 O1            -0.3624     1.2215     0.9135 O.3     
   2 C2            -0.3104    -0.2165     0.9643 C.3     
   3 O3             0.8246    -0.5473     0.1426 O.3     
   4 C4             1.6526     0.5366     0.2099 C.ar    
   5 C5             0.9215     1.6246     0.6815 C.ar    
   6 C6             2.9934     0.6846    -0.0959 C.ar    
   7 C7             3.6202     1.9172     0.0601 C.ar    
   8 C8             2.8768     2.9999     0.5205 C.ar    
   9 C9             1.5415     2.8535     0.8333 C.ar    
  10 O10            4.9190     2.2690    -0.1628 O.3     
  11 C11            3.8114     4.1796     0.5510 C.3     
  12 C12            5.0088     3.7020    -0.2820 C.3     
  13 N13            3.2360     6.3572     0.9371 N.am    
  14 C14            3.1857     5.4162    -0.0270 C.2     
  15 C15            4.2144     4.5533     1.9463 C.ar    
  16 C16            4.8344     3.8679     2.9813 C.ar    
  17 C17            5.0774     4.5137     4.1928 C.ar    
  18 C18            4.6987     5.8319     4.3535 C.ar    
  19 C19            4.0824     6.5133     3.3238 C.ar    
  20 C20            3.8343     5.8812     2.1066 C.ar    
  21 O21            2.7256     5.5435    -1.1420 O.2     
  22 C22            2.7231     7.7201     0.7771 C.3     
  23 C23            1.2556     7.7665     1.2072 C.3     
  24 C24            0.7199     9.1899     1.0402 C.3     
  25 C25           -0.7476     9.2363     1.4703 C.3     
  26 C26           -1.2833    10.6597     1.3033 C.3     
  27 N27            6.1966     0.6388     2.0312 N.pl3   
  28 N28            5.3728     0.2771     3.1039 N.2     
  29 C29            4.7971     1.3548     3.5671 C.2     
  30 C30            5.2374     2.4505     2.7993 C.2     
  31 C31            6.1019     1.9726     1.8582 C.2     
  32 C32            7.0236    -0.2736     1.2376 C.3     
  33 C33            7.9345    -1.0506     2.1528 C.ar    
  34 C34            7.5173    -2.2580     2.6810 C.ar    
  35 C35            8.3528    -2.9707     3.5206 C.ar    
  36 C36            9.6057    -2.4762     3.8316 C.ar    
  37 C37           10.0232    -1.2692     3.3027 C.ar    
  38 C38            9.1894    -0.5586     2.4597 C.ar    
  39 H39           -0.1549    -0.5582     1.9876 H       
  40 H40           -1.2218    -0.6475     0.5499 H       
  41 H41            3.5577    -0.1621    -0.4579 H       
  42 H42            0.9780     3.6996     1.1981 H       
  43 H43            5.9448     4.0677     0.1403 H       
  44 H44            4.9051     4.0113    -1.3220 H       
  45 H45            5.5594     3.9852     5.0020 H       
  46 H46            4.8858     6.3330     5.2917 H       
  47 H47            3.7905     7.5439     3.4620 H       
  48 H48            3.3051     8.4024     1.3967 H       
  49 H49            2.8051     8.0189    -0.2679 H       
  50 H50            0.6736     7.0843     0.5876 H       
  51 H51            1.1736     7.4678     2.2523 H       
  52 H52            1.3019     9.8722     1.6598 H       
  53 H53            0.8019     9.4887    -0.0049 H       
  54 H54           -1.3296     8.5540     0.8507 H       
  55 H55           -0.8296     8.9376     2.5154 H       
  56 H56           -0.7013    11.3420     1.9229 H       
  57 H57           -1.2014    10.9585     0.2582 H       
  58 H58           -2.3288    10.6928     1.6097 H       
  59 H59            4.1040     1.3979     4.3942 H       
  60 H60            6.6176     2.5570     1.1106 H       
  61 H61            6.3812    -0.9647     0.6920 H       
  62 H62            7.6226     0.3007     0.5308 H       
  63 H63            6.5385    -2.6444     2.4380 H       
  64 H64            8.0266    -3.9137     3.9338 H       
  65 H65           10.2581    -3.0327     4.4881 H       
  66 H66           11.0019    -0.8827     3.5460 H       
  67 H67            9.5170     0.3826     2.0435 H       
@<TRIPOS>BOND
   1    1    2 1
   2    1    5 1
   3    2    3 1
   4    2   39 1
   5    2   40 1
   6    3    4 1
   7    4    5 ar
   8    4    6 ar
   9    5    9 ar
  10    6    7 ar
  11    6   41 1
  12    7    8 ar
  13    7   10 1
  14    8    9 ar
  15    8   11 1
  16    9   42 1
  17   10   12 1
  18   11   12 1
  19   11   14 1
  20   11   15 1
  21   12   43 1
  22   12   44 1
  23   13   14 am
  24   13   20 1
  25   13   22 1
  26   14   21 2
  27   15   16 ar
  28   15   20 ar
  29   16   17 ar
  30   16   30 1
  31   17   18 ar
  32   17   45 1
  33   18   19 ar
  34   18   46 1
  35   19   20 ar
  36   19   47 1
  37   22   23 1
  38   22   48 1
  39   22   49 1
  40   23   24 1
  41   23   50 1
  42   23   51 1
  43   24   25 1
  44   24   52 1
  45   24   53 1
  46   25   26 1
  47   25   54 1
  48   25   55 1
  49   26   56 1
  50   26   57 1
  51   26   58 1
  52   27   28 1
  53   27   31 1
  54   27   32 1
  55   28   29 2
  56   29   30 1
  57   29   59 1
  58   30   31 2
  59   31   60 1
  60   32   33 1
  61   32   61 1
  62   32   62 1
  63   33   34 ar
  64   33   38 ar
  65   34   35 ar
  66   34   63 1
  67   35   36 ar
  68   35   64 1
  69   36   37 ar
  70   36   65 1
  71   37   38 ar
  72   37   66 1
  73   38   67 1

#	End of record

