#	Name: ASD03331239
#	Creating user name:	WinNT
#	Creation time:	15. 06. 2019 20:38

#	Modifying user name:	WinNT
#	Modification time:	15. 06. 2019 20:38

#	Program:	/corina/corina34_cracker 3.40 0067  02.08.2006

@<TRIPOS>MOLECULE
ASD03331239
  44   46    0    0    0
SMALL
NO_CHARGES


@<TRIPOS>ATOM
   1 N1            -0.0230     1.4997    -0.2568 N.am    
   2 C2             0.0389     0.0572     0.0152 C.3     
   3 C3             1.0542    -0.1901     1.1353 C.3     
   4 C4             2.3967     0.4347     0.7487 C.3     
   5 C5             2.2269     1.9458     0.5757 C.3     
   6 C6             1.2249     2.2174    -0.5508 C.3     
   7 C7            -1.2028     2.1512    -0.2426 C.2     
   8 O8            -1.2318     3.3594    -0.3758 O.2     
   9 N9            -2.3505     1.4634    -0.0806 N.am    
  10 C10           -3.5665     2.1477     0.0340 C.ar    
  11 C11           -4.7654     1.4762    -0.1716 C.ar    
  12 C12           -5.9641     2.1551    -0.0571 C.ar    
  13 C13           -5.9702     3.5005     0.2615 C.ar    
  14 C14           -4.7783     4.1711     0.4666 C.ar    
  15 C15           -3.5773     3.4976     0.3590 C.ar    
  16 C16            3.4228     0.1599     1.8497 C.3     
  17 C17            4.7737     0.6672     1.4154 C.ar    
  18 C18            5.1514     1.9645     1.7074 C.ar    
  19 C19            6.3906     2.4300     1.3090 C.ar    
  20 C20            7.2522     1.5980     0.6189 C.ar    
  21 C21            6.8749     0.3004     0.3277 C.ar    
  22 C22            5.6375    -0.1664     0.7299 C.ar    
  23 Cl23          -4.7580    -0.2129    -0.5722 Cl      
  24 H24           -0.9432    -0.2983     0.3272 H       
  25 H25            0.3521    -0.4713    -0.8851 H       
  26 H26            0.6945     0.2632     2.0591 H       
  27 H27            1.1808    -1.2629     1.2812 H       
  28 H28            2.7438    -0.0013    -0.1880 H       
  29 H29            1.8562     2.3790     1.5046 H       
  30 H30            3.1882     2.3934     0.3232 H       
  31 H31            1.6348     1.8650    -1.4973 H       
  32 H32            1.0253     3.2872    -0.6123 H       
  33 H33           -2.3340     0.4943    -0.0433 H       
  34 H34           -6.8965     1.6343    -0.2171 H       
  35 H35           -6.9079     4.0289     0.3500 H       
  36 H36           -4.7868     5.2222     0.7150 H       
  37 H37           -2.6472     4.0212     0.5238 H       
  38 H38            3.1200     0.6699     2.7642 H       
  39 H39            3.4797    -0.9130     2.0338 H       
  40 H40            4.4782     2.6146     2.2466 H       
  41 H41            6.6854     3.4437     1.5365 H       
  42 H42            8.2201     1.9618     0.3070 H       
  43 H43            7.5480    -0.3495    -0.2118 H       
  44 H44            5.3427    -1.1802     0.5024 H       
@<TRIPOS>BOND
   1    1    2 1
   2    1    6 1
   3    1    7 am
   4    2    3 1
   5    2   24 1
   6    2   25 1
   7    3    4 1
   8    3   26 1
   9    3   27 1
  10    4    5 1
  11    4   16 1
  12    4   28 1
  13    5    6 1
  14    5   29 1
  15    5   30 1
  16    6   31 1
  17    6   32 1
  18    7    8 2
  19    7    9 am
  20    9   10 1
  21    9   33 1
  22   10   11 ar
  23   10   15 ar
  24   11   12 ar
  25   11   23 1
  26   12   13 ar
  27   12   34 1
  28   13   14 ar
  29   13   35 1
  30   14   15 ar
  31   14   36 1
  32   15   37 1
  33   16   17 1
  34   16   38 1
  35   16   39 1
  36   17   18 ar
  37   17   22 ar
  38   18   19 ar
  39   18   40 1
  40   19   20 ar
  41   19   41 1
  42   20   21 ar
  43   20   42 1
  44   21   22 ar
  45   21   43 1
  46   22   44 1

#	End of record

