#	Name: ASD01911205
#	Creating user name:	WinNT
#	Creation time:	15. 06. 2019 19:57

#	Modifying user name:	WinNT
#	Modification time:	15. 06. 2019 19:57

#	Program:	/corina/corina34_cracker 3.40 0067  02.08.2006

@<TRIPOS>MOLECULE
ASD01911205
  49   51    0    0    0
SMALL
NO_CHARGES


@<TRIPOS>ATOM
   1 C1            -0.6140     1.5050     0.6353 C.ar    
   2 N2            -0.4847     0.2038     0.4957 N.ar    
   3 C3             0.5401    -0.3279    -0.1596 C.ar    
   4 C4             1.5189     0.4866    -0.7241 C.ar    
   5 C5             1.4083     1.8621    -0.5926 C.ar    
   6 C6             0.3223     2.3749     0.0990 C.ar    
   7 C7             0.6437    -1.7997    -0.2913 C.2     
   8 N8            -0.3001    -2.5930     0.2531 N.am    
   9 C9            -0.2526    -3.9762     0.0511 C.ar    
  10 C10           -1.4244    -4.7214     0.0613 C.ar    
  11 C11           -1.3745    -6.0871    -0.1390 C.ar    
  12 C12           -0.1588    -6.7127    -0.3497 C.ar    
  13 C13            1.0106    -5.9727    -0.3600 C.ar    
  14 C14            0.9662    -4.6063    -0.1660 C.ar    
  15 C15           -2.7491    -4.0407     0.2912 C.3     
  16 N16           -3.2003    -3.4167    -0.9551 N.am    
  17 O17            1.5797    -2.2918    -0.8901 O.2     
  18 Br18          -0.0946    -8.5827    -0.6236 Br      
  19 C19           -3.9640    -4.1136    -1.8196 C.2     
  20 C20           -4.4998    -3.4548    -3.0300 C.ar    
  21 C21           -3.6955    -2.5853    -3.7682 C.ar    
  22 C22           -4.1986    -1.9723    -4.8977 C.ar    
  23 C23           -5.4981    -2.2163    -5.3011 C.ar    
  24 C24           -6.3060    -3.0795    -4.5728 C.ar    
  25 C25           -5.8094    -3.7045    -3.4416 C.ar    
  26 O26           -4.2124    -5.2839    -1.6043 O.2     
  27 C27           -2.8214    -2.0352    -1.2616 C.3     
  28 O28           -7.5831    -3.3149    -4.9736 O.3     
  29 C29           -8.0279    -2.6408    -6.1525 C.3     
  30 H30           -1.4637     1.9013     1.1712 H       
  31 H31            2.3524     0.0526    -1.2564 H       
  32 H32            2.1517     2.5192    -1.0192 H       
  33 H33            0.2067     3.4420     0.2189 H       
  34 H34           -1.0122    -2.2048     0.7851 H       
  35 H35           -2.2855    -6.6672    -0.1308 H       
  36 H36            1.9584    -6.4638    -0.5240 H       
  37 H37            1.8791    -4.0293    -0.1744 H       
  38 H38           -3.4844    -4.7769     0.6159 H       
  39 H39           -2.6362    -3.2764     1.0601 H       
  40 H40           -2.6800    -2.3919    -3.4554 H       
  41 H41           -3.5752    -1.2997    -5.4681 H       
  42 H42           -5.8866    -1.7336    -6.1856 H       
  43 H43           -6.4367    -4.3761    -2.8743 H       
  44 H44           -1.9261    -2.0334    -1.8833 H       
  45 H45           -3.6355    -1.5451    -1.7956 H       
  46 H46           -2.6207    -1.4991    -0.3340 H       
  47 H47           -7.9622    -1.5633    -6.0015 H       
  48 H48           -7.3988    -2.9287    -6.9948 H       
  49 H49           -9.0618    -2.9163    -6.3603 H       
@<TRIPOS>BOND
   1    1    2 ar
   2    1    6 ar
   3    1   30 1
   4    2    3 ar
   5    3    4 ar
   6    3    7 1
   7    4    5 ar
   8    4   31 1
   9    5    6 ar
  10    5   32 1
  11    6   33 1
  12    7    8 am
  13    7   17 2
  14    8    9 1
  15    8   34 1
  16    9   10 ar
  17    9   14 ar
  18   10   11 ar
  19   10   15 1
  20   11   12 ar
  21   11   35 1
  22   12   13 ar
  23   12   18 1
  24   13   14 ar
  25   13   36 1
  26   14   37 1
  27   15   16 1
  28   15   38 1
  29   15   39 1
  30   16   19 am
  31   16   27 1
  32   19   20 1
  33   19   26 2
  34   20   21 ar
  35   20   25 ar
  36   21   22 ar
  37   21   40 1
  38   22   23 ar
  39   22   41 1
  40   23   24 ar
  41   23   42 1
  42   24   25 ar
  43   24   28 1
  44   25   43 1
  45   27   44 1
  46   27   45 1
  47   27   46 1
  48   28   29 1
  49   29   47 1
  50   29   48 1
  51   29   49 1

#	End of record

