#	Name: ASD01230846
#	Creating user name:	WinNT
#	Creation time:	15. 06. 2019 19:15

#	Modifying user name:	WinNT
#	Modification time:	15. 06. 2019 19:15

#	Program:	/corina/corina34_cracker 3.40 0067  02.08.2006

@<TRIPOS>MOLECULE
ASD01230846
  48   51    0    0    0
SMALL
NO_CHARGES


@<TRIPOS>ATOM
   1 C1            -0.2123     2.2463     0.4918 C.3     
   2 C2            -0.3694     0.9093     1.2214 C.3     
   3 C3            -1.8374     0.5523     1.4079 C.3     
   4 C4            -2.7288     1.1477     0.3269 C.3     
   5 N5            -1.9920     1.3422    -0.9239 N.pl3   
   6 C6            -0.8390     2.0824    -0.8822 C.2     
   7 C7            -2.4599     0.7321    -2.1660 C.3     
   8 C8            -2.5497     1.8007    -3.2566 C.3     
   9 S9            -0.9483     2.6341    -3.4140 S.o2    
  10 N10           -0.3108     2.6482    -1.8955 N.am    
  11 C11            1.2491     2.5866     0.3524 C.ar    
  12 O12           -0.0440     1.8332    -4.1624 O.2     
  13 O13           -1.1328     4.0081    -3.7257 O.2     
  14 C14            1.7436     3.7493     0.9141 C.ar    
  15 C15            3.0828     4.0636     0.7878 C.ar    
  16 C16            3.9321     3.2111     0.0969 C.ar    
  17 C17            3.4334     2.0447    -0.4654 C.ar    
  18 C18            2.0943     1.7327    -0.3320 C.ar    
  19 O19            5.2497     3.5181    -0.0292 O.3     
  20 C20            6.0995     3.0953     0.9440 C.ar    
  21 C21            5.6349     2.2822     1.9669 C.ar    
  22 C22            6.5005     1.8533     2.9548 C.ar    
  23 C23            7.8296     2.2334     2.9251 C.ar    
  24 C24            8.2971     3.0439     1.9073 C.ar    
  25 C25            7.4364     3.4722     0.9126 C.ar    
  26 F26            7.8928     4.2642    -0.0822 F       
  27 C27            8.7703     1.7638     4.0047 C.3     
  28 H28           -0.7257     3.0334     1.0441 H       
  29 H29            0.1176     0.1261     0.6404 H       
  30 H30            0.1085     0.9774     2.1986 H       
  31 H31           -1.9406    -0.5326     1.3910 H       
  32 H32           -2.1683     0.9202     2.3791 H       
  33 H33           -3.5677     0.4757     0.1461 H       
  34 H34           -3.1108     2.1095     0.6692 H       
  35 H35           -1.7607    -0.0448    -2.4751 H       
  36 H36           -3.4444     0.2923    -2.0063 H       
  37 H37           -2.8101     1.3313    -4.2052 H       
  38 H38           -3.3144     2.5300    -2.9892 H       
  39 H39            1.0822     4.4125     1.4517 H       
  40 H40            3.4684     4.9723     1.2261 H       
  41 H41            4.0923     1.3794    -1.0036 H       
  42 H42            1.7057     0.8248    -0.7692 H       
  43 H43            4.5970     1.9847     1.9916 H       
  44 H44            6.1384     1.2204     3.7515 H       
  45 H45            9.3356     3.3398     1.8866 H       
  46 H46            9.2228     0.8182     3.7063 H       
  47 H47            9.5516     2.5089     4.1552 H       
  48 H48            8.2171     1.6248     4.9335 H       
@<TRIPOS>BOND
   1    1    2 1
   2    1   11 1
   3    1    6 1
   4    1   28 1
   5    2    3 1
   6    2   29 1
   7    2   30 1
   8    3    4 1
   9    3   31 1
  10    3   32 1
  11    4    5 1
  12    4   33 1
  13    4   34 1
  14    5    6 1
  15    5    7 1
  16    6   10 2
  17    7    8 1
  18    7   35 1
  19    7   36 1
  20    8    9 1
  21    8   37 1
  22    8   38 1
  23    9   10 am
  24    9   12 2
  25    9   13 2
  26   11   14 ar
  27   11   18 ar
  28   14   15 ar
  29   14   39 1
  30   15   16 ar
  31   15   40 1
  32   16   17 ar
  33   16   19 1
  34   17   18 ar
  35   17   41 1
  36   18   42 1
  37   19   20 1
  38   20   21 ar
  39   20   25 ar
  40   21   22 ar
  41   21   43 1
  42   22   23 ar
  43   22   44 1
  44   23   24 ar
  45   23   27 1
  46   24   25 ar
  47   24   45 1
  48   25   26 1
  49   27   46 1
  50   27   47 1
  51   27   48 1

#	End of record

