#	Name: ASD03092905
#	Creating user name:	WinNT
#	Creation time:	15. 06. 2019 20:33

#	Modifying user name:	WinNT
#	Modification time:	15. 06. 2019 20:33

#	Program:	/corina/corina34_cracker 3.40 0067  02.08.2006

@<TRIPOS>MOLECULE
ASD03092905
  47   49    0    0    0
SMALL
NO_CHARGES


@<TRIPOS>ATOM
   1 C1            -0.0173     1.4248     0.0099 C.3     
   2 O2             0.0021    -0.0041     0.0020 O.3     
   3 C3            -1.2953    -0.6030     0.0112 C.3     
   4 C4            -1.1538    -2.1264     0.0017 C.3     
   5 H5            -2.1404    -2.5824    -0.0809 H       
   6 N6            -0.5155    -2.5654     1.2451 N.am    
   7 C7            -1.2608    -2.7708     2.3491 C.2     
   8 O8            -2.4598    -2.5922     2.3132 O.2     
   9 C9            -0.6042    -3.2223     3.6282 C.3     
  10 H10            0.2482    -3.8910     3.5084 H       
  11 C11           -0.5647    -2.2287     4.7910 C.3     
  12 C12           -1.5040    -3.4360     4.8470 C.3     
  13 H13           -2.5710    -3.2501     4.7237 H       
  14 C14           -1.1437    -4.5547     5.7903 C.ar    
  15 C15            0.0796    -4.5489     6.4341 C.ar    
  16 C16            0.4101    -5.5750     7.2994 C.ar    
  17 C17           -0.4829    -6.6067     7.5213 C.ar    
  18 C18           -1.7065    -6.6120     6.8782 C.ar    
  19 C19           -2.0388    -5.5836     6.0162 C.ar    
  20 C20           -0.3071    -2.5449    -1.1726 C.ar    
  21 C21            1.0706    -2.4569    -1.0962 C.ar    
  22 C22            1.8491    -2.8399    -2.1713 C.ar    
  23 C23            1.2473    -3.3137    -3.3280 C.ar    
  24 O24            2.0110    -3.6915    -4.3868 O.3     
  25 C25            1.3235    -4.1693    -5.5449 C.3     
  26 C26           -0.1352    -3.4014    -3.4020 C.ar    
  27 C27           -0.9090    -3.0217    -2.3225 C.ar    
  28 H28            1.0053     1.8021     0.0021 H       
  29 H29           -0.5445     1.7859    -0.8732 H       
  30 H30           -0.5275     1.7763     0.9067 H       
  31 H31           -1.8320    -0.2936     0.9080 H       
  32 H32           -1.8490    -0.2840    -0.8718 H       
  33 H33            0.4435    -2.7082     1.2738 H       
  34 H34            0.3135    -2.2440     5.4365 H       
  35 H35           -1.0136    -1.2484     4.6308 H       
  36 H36            0.7772    -3.7429     6.2607 H       
  37 H37            1.3661    -5.5709     7.8018 H       
  38 H38           -0.2244    -7.4087     8.1968 H       
  39 H39           -2.4041    -7.4181     7.0513 H       
  40 H40           -2.9963    -5.5858     5.5167 H       
  41 H41            1.5386    -2.0881    -0.1955 H       
  42 H42            2.9252    -2.7703    -2.1114 H       
  43 H43            0.7338    -5.0473    -5.2809 H       
  44 H44            0.6635    -3.3888    -5.9235 H       
  45 H45            2.0486    -4.4364    -6.3135 H       
  46 H46           -0.6060    -3.7696    -4.3016 H       
  47 H47           -1.9852    -3.0937    -2.3780 H       
@<TRIPOS>BOND
   1    1    2 1
   2    1   28 1
   3    1   29 1
   4    1   30 1
   5    2    3 1
   6    3    4 1
   7    3   31 1
   8    3   32 1
   9    4    5 1
  10    4    6 1
  11    4   20 1
  12    6    7 am
  13    6   33 1
  14    7    8 2
  15    7    9 1
  16    9   10 1
  17    9   12 1
  18    9   11 1
  19   11   12 1
  20   11   34 1
  21   11   35 1
  22   12   13 1
  23   12   14 1
  24   14   19 ar
  25   14   15 ar
  26   15   16 ar
  27   15   36 1
  28   16   17 ar
  29   16   37 1
  30   17   18 ar
  31   17   38 1
  32   18   19 ar
  33   18   39 1
  34   19   40 1
  35   20   27 ar
  36   20   21 ar
  37   21   22 ar
  38   21   41 1
  39   22   23 ar
  40   22   42 1
  41   23   24 1
  42   23   26 ar
  43   24   25 1
  44   25   43 1
  45   25   44 1
  46   25   45 1
  47   26   27 ar
  48   26   46 1
  49   27   47 1

#	End of record

