#	Name: ASD01903312
#	Creating user name:	WinNT
#	Creation time:	15. 06. 2019 19:54

#	Modifying user name:	WinNT
#	Modification time:	15. 06. 2019 19:54

#	Program:	/corina/corina34_cracker 3.40 0067  02.08.2006

@<TRIPOS>MOLECULE
ASD01903312
  33   36    0    0    0
SMALL
NO_CHARGES


@<TRIPOS>ATOM
   1 N1            -0.0111     0.9658     0.0074 N.pl3   
   2 H2             0.0450    -0.0025     0.0035 H       
   3 C3             1.1478     1.7277    -0.0088 C.2     
   4 C4            -1.2554     1.5912     0.0234 C.ar    
   5 N5            -1.3252     2.9091     0.1244 N.ar    
   6 C6            -2.4833     3.5418     0.1428 C.ar    
   7 C7            -3.6733     2.8436     0.0569 C.ar    
   8 C8            -3.6423     1.4577    -0.0504 C.ar    
   9 C9            -2.4124     0.8251    -0.0727 C.ar    
  10 S10            2.7870     1.0903     0.0955 S.3     
  11 C11            3.4270     2.7243     0.0223 C.2     
  12 C12            2.3906     3.5833    -0.1239 C.2     
  13 N13            1.1940     3.0220    -0.1089 N.2     
  14 C14            4.8506     3.1689     0.1520 C.3     
  15 C15            5.5100     3.5242    -1.1903 C.3     
  16 C16            4.4987     4.3282    -2.0290 C.3     
  17 C17            3.7507     5.3451    -1.2233 C.2     
  18 C18            2.7302     5.0220    -0.3774 C.2     
  19 N19            3.8961     6.6796    -1.1716 N.pl3   
  20 N20            2.8915     7.1948    -0.3362 N.2     
  21 C21            2.1849     6.1927     0.1357 C.2     
  22 F22           -4.8536     3.5006     0.0776 F       
  23 H23           -2.5015     4.6184     0.2263 H       
  24 H24           -4.5575     0.8884    -0.1189 H       
  25 H25           -2.3515    -0.2500    -0.1555 H       
  26 H26            4.8846     4.0449     0.7997 H       
  27 H27            5.4241     2.3695     0.6213 H       
  28 H28            6.4015     4.1261    -1.0137 H       
  29 H29            5.7819     2.6107    -1.7192 H       
  30 H30            5.0338     4.8390    -2.8296 H       
  31 H31            3.7829     3.6368    -2.4736 H       
  32 H32            4.5761     7.1969    -1.6309 H       
  33 H33            1.3361     6.2654     0.7996 H       
@<TRIPOS>BOND
   1    1    2 1
   2    1    3 1
   3    1    4 1
   4    3   10 1
   5    3   13 2
   6    4    5 ar
   7    4    9 ar
   8    5    6 ar
   9    6    7 ar
  10    6   23 1
  11    7    8 ar
  12    7   22 1
  13    8    9 ar
  14    8   24 1
  15    9   25 1
  16   10   11 1
  17   11   12 2
  18   11   14 1
  19   12   13 1
  20   12   18 1
  21   14   15 1
  22   14   26 1
  23   14   27 1
  24   15   16 1
  25   15   28 1
  26   15   29 1
  27   16   17 1
  28   16   30 1
  29   16   31 1
  30   17   18 2
  31   17   19 1
  32   18   21 1
  33   19   20 1
  34   19   32 1
  35   20   21 2
  36   21   33 1

#	End of record

