#	Name: ASD01230025
#	Creating user name:	WinNT
#	Creation time:	15. 06. 2019 19:11

#	Modifying user name:	WinNT
#	Modification time:	15. 06. 2019 19:11

#	Program:	/corina/corina34_cracker 3.40 0067  02.08.2006

@<TRIPOS>MOLECULE
ASD01230025
  45   47    0    0    0
SMALL
NO_CHARGES


@<TRIPOS>ATOM
   1 C1            -1.6005     1.7638     0.9177 C.3     
   2 C2            -1.7331     0.2654     1.1975 C.3     
   3 C3            -3.1964    -0.0709     1.4918 C.3     
   4 S4            -1.1771    -0.6720    -0.2526 S.o2    
   5 O5            -2.0665    -0.4769    -1.3435 O.2     
   6 O6             0.2280    -0.5432    -0.4209 O.2     
   7 N7            -1.3938    -2.2577     0.1725 N.am    
   8 C8            -1.5152    -3.4672     2.3307 C.3     
   9 C9            -0.6003    -2.8403     1.2574 C.3     
  10 C10            0.2046    -4.0578     0.7557 C.3     
  11 C11            0.2197    -5.0288     1.9171 C.ar    
  12 C12            1.0334    -6.1205     2.1593 C.ar    
  13 C13            0.8594    -6.8789     3.3135 C.ar    
  14 C14           -0.1382    -6.5327     4.2228 C.ar    
  15 C15           -0.9448    -5.4428     3.9733 C.ar    
  16 C16           -0.7691    -4.6894     2.8230 C.ar    
  17 C17            1.7317    -8.0508     3.5740 C.ar    
  18 C18            2.3692    -8.2010     4.8087 C.ar    
  19 C19            3.1720    -9.3118     5.0022 C.ar    
  20 C20            3.3162   -10.2291     3.9771 C.ar    
  21 N21            2.7017   -10.0604     2.8224 N.ar    
  22 C22            1.9237    -9.0220     2.5941 C.ar    
  23 C23            2.1877    -7.1791     5.9013 C.3     
  24 H24           -1.9346     2.3270     1.7891 H       
  25 H25           -0.5580     2.0034     0.7080 H       
  26 H26           -2.2144     2.0283     0.0568 H       
  27 H27           -1.1192     0.0008     2.0584 H       
  28 H28           -3.8201     0.2649     0.6634 H       
  29 H29           -3.3040    -1.1487     1.6141 H       
  30 H30           -3.5075     0.4315     2.4077 H       
  31 H31           -2.0462    -2.8009    -0.2969 H       
  32 H32           -1.6733    -2.7654     3.1496 H       
  33 H33           -2.4693    -3.7581     1.8913 H       
  34 H34            0.0581    -2.0920     1.6986 H       
  35 H35           -0.2877    -4.5073    -0.1067 H       
  36 H36            1.2210    -3.7595     0.4989 H       
  37 H37            1.8050    -6.3852     1.4516 H       
  38 H38           -0.2793    -7.1167     5.1203 H       
  39 H39           -1.7179    -5.1744     4.6780 H       
  40 H40            3.6806    -9.4604     5.9433 H       
  41 H41            3.9421   -11.0968     4.1244 H       
  42 H42            1.4335    -8.9208     1.6371 H       
  43 H43            1.3337    -7.4560     6.5195 H       
  44 H44            3.0859    -7.1428     6.5178 H       
  45 H45            2.0121    -6.1994     5.4570 H       
@<TRIPOS>BOND
   1    1    2 1
   2    1   24 1
   3    1   25 1
   4    1   26 1
   5    2    3 1
   6    2    4 1
   7    2   27 1
   8    3   28 1
   9    3   29 1
  10    3   30 1
  11    4    5 2
  12    4    6 2
  13    4    7 am
  14    7    9 1
  15    7   31 1
  16    8    9 1
  17    8   16 1
  18    8   32 1
  19    8   33 1
  20    9   10 1
  21    9   34 1
  22   10   11 1
  23   10   35 1
  24   10   36 1
  25   11   12 ar
  26   11   16 ar
  27   12   13 ar
  28   12   37 1
  29   13   14 ar
  30   13   17 1
  31   14   15 ar
  32   14   38 1
  33   15   16 ar
  34   15   39 1
  35   17   18 ar
  36   17   22 ar
  37   18   19 ar
  38   18   23 1
  39   19   20 ar
  40   19   40 1
  41   20   21 ar
  42   20   41 1
  43   21   22 ar
  44   22   42 1
  45   23   43 1
  46   23   44 1
  47   23   45 1

#	End of record

