#	Name: ASD01912169
#	Creating user name:	WinNT
#	Creation time:	15. 06. 2019 19:59

#	Modifying user name:	WinNT
#	Modification time:	15. 06. 2019 19:59

#	Program:	/corina/corina34_cracker 3.40 0067  02.08.2006

@<TRIPOS>MOLECULE
ASD01912169
  44   47    0    0    0
SMALL
NO_CHARGES


@<TRIPOS>ATOM
   1 C1            -0.0183     1.5107     0.0189 C.3     
   2 C2            -0.0110     0.0037     0.0162 C.2     
   3 O3             0.5367    -0.7860    -0.9129 O.3     
   4 N4             0.3694    -1.9508    -0.6191 N.2     
   5 C5            -0.2899    -2.0401     0.5065 C.2     
   6 N6            -0.5352    -0.7785     0.9267 N.2     
   7 C7            -0.6893    -3.2919     1.1968 C.ar    
   8 C8            -0.3610    -4.5286     0.6465 C.ar    
   9 C9            -0.7353    -5.6907     1.2933 C.ar    
  10 C10           -1.4351    -5.6266     2.4859 C.ar    
  11 C11           -1.7631    -4.4005     3.0358 C.ar    
  12 C12           -1.3889    -3.2339     2.4006 C.ar    
  13 C13            1.4227     2.0710    -0.0076 C.3     
  14 Cl14          -0.3279    -7.2333     0.6092 Cl      
  15 C15            1.3276     3.2975    -0.8882 C.2     
  16 N16            0.1863     3.2697    -1.5978 N.am    
  17 C17           -0.5955     2.0631    -1.3032 C.3     
  18 O18            2.1597     4.1780    -0.9451 O.2     
  19 C19           -0.2062     4.2638    -2.5010 C.ar    
  20 C20            0.5422     5.4269    -2.6239 C.ar    
  21 C21            0.1520     6.4063    -3.5164 C.ar    
  22 C22           -0.9825     6.2296    -4.2866 C.ar    
  23 C23           -1.7300     5.0722    -4.1666 C.ar    
  24 C24           -1.3419     4.0866    -3.2806 C.ar    
  25 C25            0.9636     7.6690    -3.6504 C.3     
  26 C26           -1.4058     7.3007    -5.2586 C.3     
  27 H27           -0.5703     1.8945     0.8768 H       
  28 H28            0.1847    -4.5791    -0.2841 H       
  29 H29           -1.7263    -6.5371     2.9885 H       
  30 H30           -2.3092    -4.3561     3.9665 H       
  31 H31           -1.6454    -2.2773     2.8314 H       
  32 H32            1.7434     2.3467     0.9970 H       
  33 H33            2.1075     1.3422    -0.4412 H       
  34 H34           -0.4754     1.3314    -2.1021 H       
  35 H35           -1.6482     2.3169    -1.1783 H       
  36 H36            1.4281     5.5658    -2.0221 H       
  37 H37           -2.6158     4.9372    -4.7696 H       
  38 H38           -1.9258     3.1829    -3.1876 H       
  39 H39            1.7267     7.5309    -4.4164 H       
  40 H40            0.3091     8.4932    -3.9341 H       
  41 H41            1.4420     7.8963    -2.6978 H       
  42 H42           -0.9406     7.1168    -6.2271 H       
  43 H43           -2.4902     7.2845    -5.3675 H       
  44 H44           -1.0927     8.2753    -4.8843 H       
@<TRIPOS>BOND
   1    1    2 1
   2    1   13 1
   3    1   17 1
   4    1   27 1
   5    2    3 1
   6    2    6 2
   7    3    4 1
   8    4    5 2
   9    5    6 1
  10    5    7 1
  11    7    8 ar
  12    7   12 ar
  13    8    9 ar
  14    8   28 1
  15    9   10 ar
  16    9   14 1
  17   10   11 ar
  18   10   29 1
  19   11   12 ar
  20   11   30 1
  21   12   31 1
  22   13   15 1
  23   13   32 1
  24   13   33 1
  25   15   16 am
  26   15   18 2
  27   16   17 1
  28   16   19 1
  29   17   34 1
  30   17   35 1
  31   19   20 ar
  32   19   24 ar
  33   20   21 ar
  34   20   36 1
  35   21   22 ar
  36   21   25 1
  37   22   23 ar
  38   22   26 1
  39   23   24 ar
  40   23   37 1
  41   24   38 1
  42   25   39 1
  43   25   40 1
  44   25   41 1
  45   26   42 1
  46   26   43 1
  47   26   44 1

#	End of record

