#	Name: ASD06170057
#	Creating user name:	WinNT
#	Creation time:	15. 06. 2019 21:05

#	Modifying user name:	WinNT
#	Modification time:	15. 06. 2019 21:05

#	Program:	/corina/corina34_cracker 3.40 0067  02.08.2006

@<TRIPOS>MOLECULE
ASD06170057
  72   76    0    0    0
SMALL
NO_CHARGES


@<TRIPOS>ATOM
   1 N1             0.2675     1.5835    -0.5646 N.pl3   
   2 N2             0.0631     0.2739    -0.1200 N.am    
   3 C3             1.2507    -0.2410     0.2604 C.2     
   4 C4             2.2535     0.8129     0.0387 C.2     
   5 C5             1.5724     1.9020    -0.4691 C.2     
   6 C6             3.6941     0.7243     0.3051 C.2     
   7 O7             4.4152     1.6772     0.0749 O.2     
   8 N8             4.2184    -0.4123     0.8047 N.am    
   9 C9            -1.1667    -0.3908    -0.0763 C.ar    
  10 C10           -2.0115    -0.3648    -1.1783 C.ar    
  11 C11           -3.2250    -1.0226    -1.1320 C.ar    
  12 C12           -3.5994    -1.7064     0.0101 C.ar    
  13 C13           -2.7608    -1.7339     1.1093 C.ar    
  14 C14           -1.5432    -1.0833     1.0673 C.ar    
  15 O15            1.4529    -1.3573     0.7005 O.2     
  16 C16            2.1863     3.2238    -0.8525 C.3     
  17 C17            5.6012    -0.5461     0.9308 C.ar    
  18 C18            6.4004     0.5907     0.9781 C.ar    
  19 C19            7.7703     0.4466     1.1033 C.ar    
  20 C20            8.2981    -0.8402     1.1773 C.ar    
  21 C21            7.4402    -1.9269     1.1237 C.ar    
  22 N22            6.1373    -1.7533     1.0094 N.ar    
  23 O23            9.6391    -1.0278     1.3003 O.3     
  24 N24           11.3083    -0.5208     5.0375 N.ar    
  25 C25           10.0309    -0.2869     4.8479 C.ar    
  26 C26            9.4340    -0.4465     3.6039 C.ar    
  27 C27           10.1950    -0.8631     2.5257 C.ar    
  28 C28           11.5695    -1.1121     2.7414 C.ar    
  29 C29           12.4043    -1.5369     1.6975 C.ar    
  30 C30           13.7238    -1.7684     1.9368 C.ar    
  31 C31           14.2612    -1.5879     3.2146 C.ar    
  32 C32           13.4678    -1.1723     4.2599 C.ar    
  33 C33           12.1032    -0.9260     4.0400 C.ar    
  34 O34           15.5815    -1.8258     3.4273 O.3     
  35 C35           16.3526    -2.2552     2.3035 C.3     
  36 C36           -0.7814     2.4750    -1.0660 C.3     
  37 C37           -1.2571     3.3893     0.0648 C.3     
  38 C38           -2.3526     4.3203    -0.4588 C.3     
  39 C39           -2.8283     5.2346     0.6720 C.3     
  40 C40           -1.7955     5.1708    -1.6021 C.3     
  41 O41           -1.7774     2.5949     1.1327 O.3     
  42 H42            3.6342    -1.1373     1.0767 H       
  43 H43           -1.7200     0.1696    -2.0704 H       
  44 H44           -3.8824    -1.0028    -1.9887 H       
  45 H45           -4.5490    -2.2197     0.0439 H       
  46 H46           -3.0564    -2.2682     2.0001 H       
  47 H47           -0.8866    -1.1091     1.9244 H       
  48 H48            2.1794     3.8912     0.0092 H       
  49 H49            3.2134     3.0656    -1.1813 H       
  50 H50            1.6102     3.6706    -1.6628 H       
  51 H51            5.9572     1.5737     0.9176 H       
  52 H52            8.4157     1.3117     1.1422 H       
  53 H53            7.8423    -2.9277     1.1802 H       
  54 H54            9.4271     0.0383     5.6822 H       
  55 H55            8.3801    -0.2466     3.4786 H       
  56 H56           12.0008    -1.6803     0.7060 H       
  57 H57           14.3632    -2.0957     1.1303 H       
  58 H58           13.8927    -1.0359     5.2434 H       
  59 H59           17.3872    -2.4090     2.6101 H       
  60 H60           15.9449    -3.1901     1.9189 H       
  61 H61           16.3140    -1.4942     1.5241 H       
  62 H62           -0.3845     3.0809    -1.8805 H       
  63 H63           -1.6197     1.8810    -1.4300 H       
  64 H64           -0.4188     3.9833     0.4289 H       
  65 H65           -3.1909     3.7263    -0.8228 H       
  66 H66           -1.9900     5.8285     1.0361 H       
  67 H67           -3.6087     5.8978     0.2990 H       
  68 H68           -3.2252     4.6286     1.4865 H       
  69 H69           -2.5759     5.8341    -1.9751 H       
  70 H70           -0.9572     5.7648    -1.2381 H       
  71 H71           -1.4566     4.5194    -2.4077 H       
  72 H72           -2.5275     2.0393     0.8803 H       
@<TRIPOS>BOND
   1    1    2 1
   2    1    5 1
   3    1   36 1
   4    2    3 am
   5    2    9 1
   6    3    4 1
   7    3   15 2
   8    4    5 2
   9    4    6 1
  10    5   16 1
  11    6    7 2
  12    6    8 am
  13    8   17 1
  14    8   42 1
  15    9   10 ar
  16    9   14 ar
  17   10   11 ar
  18   10   43 1
  19   11   12 ar
  20   11   44 1
  21   12   13 ar
  22   12   45 1
  23   13   14 ar
  24   13   46 1
  25   14   47 1
  26   16   48 1
  27   16   49 1
  28   16   50 1
  29   17   18 ar
  30   17   22 ar
  31   18   19 ar
  32   18   51 1
  33   19   20 ar
  34   19   52 1
  35   20   21 ar
  36   20   23 1
  37   21   22 ar
  38   21   53 1
  39   23   27 1
  40   24   25 ar
  41   24   33 ar
  42   25   26 ar
  43   25   54 1
  44   26   27 ar
  45   26   55 1
  46   27   28 ar
  47   28   29 ar
  48   28   33 ar
  49   29   30 ar
  50   29   56 1
  51   30   31 ar
  52   30   57 1
  53   31   32 ar
  54   31   34 1
  55   32   33 ar
  56   32   58 1
  57   34   35 1
  58   35   59 1
  59   35   60 1
  60   35   61 1
  61   36   37 1
  62   36   62 1
  63   36   63 1
  64   37   38 1
  65   37   41 1
  66   37   64 1
  67   38   39 1
  68   38   40 1
  69   38   65 1
  70   39   66 1
  71   39   67 1
  72   39   68 1
  73   40   69 1
  74   40   70 1
  75   40   71 1
  76   41   72 1

#	End of record

