#	Name: ASD01870364
#	Creating user name:	WinNT
#	Creation time:	15. 06. 2019 19:39

#	Modifying user name:	WinNT
#	Modification time:	15. 06. 2019 19:39

#	Program:	/corina/corina34_cracker 3.40 0067  02.08.2006

@<TRIPOS>MOLECULE
ASD01870364
  49   52    0    0    0
SMALL
NO_CHARGES


@<TRIPOS>ATOM
   1 N1            -0.0179     1.4666     0.0101 N.am    
   2 C2             0.0021    -0.0041     0.0020 C.3     
   3 C3             1.1293     2.1740     0.0030 C.2     
   4 C4             1.0857     3.6803     0.0115 C.3     
   5 O5             2.1967     1.5983    -0.0103 O.2     
   6 C6             2.4763     4.3407     0.0017 C.3     
   7 N7             1.9076     5.2908    -0.9739 N.am    
   8 C8             0.8907     4.3026    -1.3830 C.3     
   9 S9             2.2664     6.8425    -1.4275 S.o2    
  10 C10            3.4250     6.7442    -2.7514 C.2     
  11 O11            1.0740     7.3858    -1.9773 O.2     
  12 O12            2.9563     7.4310    -0.3334 O.2     
  13 C13            3.1245     6.6800    -4.0692 C.2     
  14 C14           -0.8911    -0.5093     1.1401 C.3     
  15 N15           -2.2246     0.0945     1.0166 N.3     
  16 C16           -2.1639     1.5549     1.1634 C.3     
  17 C17           -1.3229     2.1448     0.0200 C.3     
  18 C18           -3.1111    -0.4624     1.9335 C.ar    
  19 C19           -4.4382    -0.0378     1.9944 C.ar    
  20 C20           -2.6971    -1.4639     2.8116 C.ar    
  21 C21           -3.6064    -1.9896     3.7049 C.ar    
  22 N22           -4.8531    -1.5568     3.7352 N.ar    
  23 C23           -5.2847    -0.6150     2.9173 C.ar    
  24 N24            4.2860     6.6162    -4.7533 N.pl3   
  25 N25            5.3350     6.6420    -3.8253 N.2     
  26 C26            4.8180     6.7249    -2.6262 C.2     
  27 C27            4.4252     6.5339    -6.2094 C.3     
  28 H28           -0.3779    -0.3702    -0.9518 H       
  29 H29            1.0222    -0.3573     0.1528 H       
  30 H30            0.4145     4.0817     0.7708 H       
  31 H31            2.7518     4.7987     0.9517 H       
  32 H32            3.2612     3.7060    -0.4094 H       
  33 H33            1.2098     3.6567    -2.2009 H       
  34 H34           -0.0998     4.7302    -1.5387 H       
  35 H35            2.1328     6.6796    -4.4969 H       
  36 H36           -0.9763    -1.5943     1.0813 H       
  37 H37           -0.4526    -0.2298     2.0981 H       
  38 H38           -3.1722     1.9669     1.1215 H       
  39 H39           -1.7077     1.8056     2.1210 H       
  40 H40           -1.1778     3.2123     0.1853 H       
  41 H41           -1.8328     1.9844    -0.9299 H       
  42 H42           -4.7978     0.7326     1.3283 H       
  43 H43           -1.6786    -1.8228     2.7918 H       
  44 H44           -3.2948    -2.7657     4.3883 H       
  45 H45           -6.3128    -0.2892     2.9747 H       
  46 H46            5.3711     6.7637    -1.6994 H       
  47 H47            4.4833     7.5394    -6.6262 H       
  48 H48            5.3337     5.9849    -6.4570 H       
  49 H49            3.5623     6.0163    -6.6282 H       
@<TRIPOS>BOND
   1    1    2 1
   2    1    3 am
   3    1   17 1
   4    2   14 1
   5    2   28 1
   6    2   29 1
   7    3    4 1
   8    3    5 2
   9    4    6 1
  10    4    8 1
  11    4   30 1
  12    6    7 1
  13    6   31 1
  14    6   32 1
  15    7    8 1
  16    7    9 am
  17    8   33 1
  18    8   34 1
  19    9   10 1
  20    9   11 2
  21    9   12 2
  22   10   13 2
  23   10   26 1
  24   13   24 1
  25   13   35 1
  26   14   15 1
  27   14   36 1
  28   14   37 1
  29   15   16 1
  30   15   18 1
  31   16   17 1
  32   16   38 1
  33   16   39 1
  34   17   40 1
  35   17   41 1
  36   18   19 ar
  37   18   20 ar
  38   19   23 ar
  39   19   42 1
  40   20   21 ar
  41   20   43 1
  42   21   22 ar
  43   21   44 1
  44   22   23 ar
  45   23   45 1
  46   24   25 1
  47   24   27 1
  48   25   26 2
  49   26   46 1
  50   27   47 1
  51   27   48 1
  52   27   49 1

#	End of record

