#	Name: ASD01870584
#	Creating user name:	WinNT
#	Creation time:	15. 06. 2019 19:39

#	Modifying user name:	WinNT
#	Modification time:	15. 06. 2019 19:39

#	Program:	/corina/corina34_cracker 3.40 0067  02.08.2006

@<TRIPOS>MOLECULE
ASD01870584
  41   44    0    0    0
SMALL
NO_CHARGES


@<TRIPOS>ATOM
   1 C1            -0.0107     1.3951     0.0268 C.ar    
   2 C2             0.0041     0.0062     0.0172 C.ar    
   3 C3             1.2067    -0.6710    -0.0036 C.ar    
   4 C4             2.4020     0.0363    -0.0149 C.ar    
   5 C5             2.3872     1.4252    -0.0053 C.ar    
   6 C6             1.1845     2.1024     0.0155 C.ar    
   7 N7             3.6216    -0.6505    -0.0355 N.am    
   8 C8             4.6702    -0.1416    -0.7122 C.2     
   9 O9             4.5308     0.8633    -1.3846 O.2     
  10 N10           -1.2305     2.0820     0.0421 N.am    
  11 C11           -2.4489     1.5141     0.0492 C.2     
  12 C12           -3.4970     2.5519     0.0661 C.ar    
  13 C13           -1.3899     3.5406     0.0593 C.3     
  14 C14           -5.6379     3.6401     0.0925 C.ar    
  15 C15           -5.0115     4.8741     0.0954 C.ar    
  16 C16           -3.6291     4.9533     0.0857 C.ar    
  17 C17           -2.8751     3.8027     0.0692 C.ar    
  18 C18           -4.8915     2.4803     0.0779 C.ar    
  19 O19           -2.6571     0.3164     0.0424 O.2     
  20 C20            5.9789    -0.7986    -0.6385 C.2     
  21 O21            6.2670    -1.9155     0.0613 O.3     
  22 C22            7.1185    -0.3906    -1.2709 C.2     
  23 C23            8.1233    -1.3068    -0.9227 C.2     
  24 C24            7.5595    -2.2241    -0.1061 C.2     
  25 C25            7.2681     0.8103    -2.1689 C.3     
  26 H26           -0.9253    -0.5438     0.0264 H       
  27 H27            1.2182    -1.7509    -0.0107 H       
  28 H28            3.3166     1.9752    -0.0137 H       
  29 H29            1.1730     3.1823     0.0229 H       
  30 H30            3.7120    -1.4926     0.4373 H       
  31 H31           -0.9280     3.9573     0.9544 H       
  32 H32           -0.9403     3.9770    -0.8326 H       
  33 H33           -6.7165     3.5850     0.1000 H       
  34 H34           -5.6026     5.7780     0.1064 H       
  35 H35           -3.1431     5.9178     0.0876 H       
  36 H36           -5.3843     1.5193     0.0753 H       
  37 H37            9.1528    -1.2843    -1.2483 H       
  38 H38            8.0671    -3.0683     0.3367 H       
  39 H39            7.5487     1.6778    -1.5717 H       
  40 H40            8.0417     0.6146    -2.9114 H       
  41 H41            6.3220     1.0070    -2.6732 H       
@<TRIPOS>BOND
   1    1    2 ar
   2    1    6 ar
   3    1   10 1
   4    2    3 ar
   5    2   26 1
   6    3    4 ar
   7    3   27 1
   8    4    5 ar
   9    4    7 1
  10    5    6 ar
  11    5   28 1
  12    6   29 1
  13    7    8 am
  14    7   30 1
  15    8    9 2
  16    8   20 1
  17   10   11 am
  18   10   13 1
  19   11   12 1
  20   11   19 2
  21   12   18 ar
  22   12   17 ar
  23   13   17 1
  24   13   31 1
  25   13   32 1
  26   14   15 ar
  27   14   18 ar
  28   14   33 1
  29   15   16 ar
  30   15   34 1
  31   16   17 ar
  32   16   35 1
  33   18   36 1
  34   20   22 2
  35   20   21 1
  36   21   24 1
  37   22   23 1
  38   22   25 1
  39   23   24 2
  40   23   37 1
  41   24   38 1
  42   25   39 1
  43   25   40 1
  44   25   41 1

#	End of record

