#	Name: ASD01884106
#	Creating user name:	WinNT
#	Creation time:	15. 06. 2019 19:47

#	Modifying user name:	WinNT
#	Modification time:	15. 06. 2019 19:47

#	Program:	/corina/corina34_cracker 3.40 0067  02.08.2006

@<TRIPOS>MOLECULE
ASD01884106
  63   66    0    0    0
SMALL
NO_CHARGES


@<TRIPOS>ATOM
   1 C1            -0.5217     1.1433     0.6033 C.2     
   2 C2            -0.3630    -0.2387     0.6676 C.2     
   3 C3            -1.4599    -1.0297     1.0121 C.2     
   4 C4            -2.6590    -0.4530     1.2781 C.2     
   5 N5            -2.8209     0.8912     1.2174 N.am    
   6 C6            -1.7940     1.7006     0.8958 C.2     
   7 O7            -1.9589     2.9074     0.8463 O.2     
   8 C8            -4.1328     1.4732     1.5117 C.3     
   9 C9            -4.2284     1.7773     2.9846 C.ar    
  10 C10            0.5807     1.9878     0.2538 C.1     
  11 N11            1.4552     2.6578    -0.0234 N.1     
  12 C12            0.9724    -0.8703     0.3695 C.3     
  13 N13            1.6838    -1.1286     1.6285 N.3     
  14 C14            1.9873     0.1270     2.3291 C.3     
  15 C15            2.6556    -0.1884     3.6694 C.3     
  16 N16            3.8803    -0.9652     3.4324 N.3     
  17 C17            3.5768    -2.2208     2.7318 C.3     
  18 C18            2.9086    -1.9054     1.3915 C.3     
  19 C19           -3.8303     3.0126     3.4615 C.ar    
  20 C20           -3.9170     3.2939     4.8112 C.ar    
  21 C21           -4.4040     2.3357     5.6884 C.ar    
  22 C22           -4.8028     1.0971     5.2073 C.ar    
  23 C23           -4.7194     0.8227     3.8559 C.ar    
  24 C24            2.5546    -3.2115     0.6777 C.3     
  25 C25            4.5918    -1.2235     4.6914 C.3     
  26 C26            3.7579    -2.1263     5.5636 C.ar    
  27 C27            3.8984    -3.4981     5.4712 C.ar    
  28 C28            3.1327    -4.3285     6.2721 C.ar    
  29 C29            2.2262    -3.7843     7.1654 C.ar    
  30 C30            2.0863    -2.4103     7.2571 C.ar    
  31 C31            2.8571    -1.5816     6.4592 C.ar    
  32 F32            1.2016    -1.8777     8.1282 F       
  33 F33            3.2700    -5.6695     6.1813 F       
  34 O34           -4.4898     2.6098     7.0166 O.3     
  35 C35           -5.0007     1.5761     7.8607 C.3     
  36 F36           -4.1816     0.4463     7.7622 F       
  37 F37           -5.0206     2.0235     9.1861 F       
  38 F38           -6.3000     1.2465     7.4602 F       
  39 H39           -1.3543    -2.1031     1.0666 H       
  40 H40           -3.5000    -1.0767     1.5427 H       
  41 H41           -4.2579     2.3938     0.9417 H       
  42 H42           -4.9145     0.7656     1.2353 H       
  43 H43            0.8195    -1.8102    -0.1609 H       
  44 H44            1.5633    -0.1955    -0.2499 H       
  45 H45            2.6609     0.7298     1.7199 H       
  46 H46            1.0634     0.6782     2.5042 H       
  47 H47            2.9078     0.7421     4.1780 H       
  48 H48            1.9715    -0.7681     4.2893 H       
  49 H49            4.5008    -2.7720     2.5567 H       
  50 H50            2.9033    -2.8236     3.3410 H       
  51 H51            3.5926    -1.3257     0.7716 H       
  52 H52           -3.4509     3.7580     2.7783 H       
  53 H53           -3.6056     4.2587     5.1833 H       
  54 H54           -5.1823     0.3495     5.8882 H       
  55 H55           -5.0297    -0.1414     3.4810 H       
  56 H56            1.7710    -3.7278     1.2323 H       
  57 H57            2.2016    -2.9909    -0.3297 H       
  58 H58            3.4388    -3.8464     0.6220 H       
  59 H59            5.5459    -1.7052     4.4774 H       
  60 H60            4.7688    -0.2806     5.2088 H       
  61 H61            4.6055    -3.9225     4.7739 H       
  62 H62            1.6283    -4.4313     7.7902 H       
  63 H63            2.7484    -0.5095     6.5308 H       
@<TRIPOS>BOND
   1    1    2 2
   2    1   10 1
   3    1    6 1
   4    2    3 1
   5    2   12 1
   6    3    4 2
   7    3   39 1
   8    4    5 1
   9    4   40 1
  10    5    6 am
  11    5    8 1
  12    6    7 2
  13    8    9 1
  14    8   41 1
  15    8   42 1
  16    9   19 ar
  17    9   23 ar
  18   10   11 3
  19   12   13 1
  20   12   43 1
  21   12   44 1
  22   13   14 1
  23   13   18 1
  24   14   15 1
  25   14   45 1
  26   14   46 1
  27   15   16 1
  28   15   47 1
  29   15   48 1
  30   16   17 1
  31   16   25 1
  32   17   18 1
  33   17   49 1
  34   17   50 1
  35   18   24 1
  36   18   51 1
  37   19   20 ar
  38   19   52 1
  39   20   21 ar
  40   20   53 1
  41   21   34 1
  42   21   22 ar
  43   22   23 ar
  44   22   54 1
  45   23   55 1
  46   24   56 1
  47   24   57 1
  48   24   58 1
  49   25   26 1
  50   25   59 1
  51   25   60 1
  52   26   27 ar
  53   26   31 ar
  54   27   28 ar
  55   27   61 1
  56   28   29 ar
  57   28   33 1
  58   29   30 ar
  59   29   62 1
  60   30   31 ar
  61   30   32 1
  62   31   63 1
  63   34   35 1
  64   35   36 1
  65   35   37 1
  66   35   38 1

#	End of record

