#	Name: ASD01140537
#	Creating user name:	WinNT
#	Creation time:	15. 06. 2019 19:01

#	Modifying user name:	WinNT
#	Modification time:	15. 06. 2019 19:01

#	Program:	/corina/corina34_cracker 3.40 0067  02.08.2006

@<TRIPOS>MOLECULE
ASD01140537
  49   50    0    0    0
SMALL
NO_CHARGES


@<TRIPOS>ATOM
   1 O1            -0.3736     1.4229    -0.5846 O.3     
   2 O2             0.7842    -0.4166    -1.0350 O.2     
   3 N3            -0.6458    -6.2449    -0.1617 N.pl3   
   4 N4            -1.1558    -0.6938     0.0094 N.am    
   5 N5            -3.4297    -2.3161     0.1696 N.pl3   
   6 C6             0.5472    -8.3527    -0.3136 C.ar    
   7 C7             0.6813    -6.8518    -0.2909 C.3     
   8 C8             0.3821    -9.0138    -1.5163 C.ar    
   9 C9             0.5950    -9.0688     0.8679 C.ar    
  10 C10            0.3016   -11.1061    -0.3551 C.ar    
  11 C11            0.2590   -10.3905    -1.5370 C.ar    
  12 C12            0.4721   -10.4455     0.8472 C.ar    
  13 C13           -0.7770    -4.8528    -0.1185 C.ar    
  14 C14            0.3356    -8.2337    -2.8048 C.3     
  15 C15            0.7818    -8.3486     2.1784 C.3     
  16 C16            0.1670   -12.6070    -0.3777 C.3     
  17 C17           -2.0347    -4.2782     0.0040 C.ar    
  18 C18            0.3516    -4.0466    -0.1925 C.ar    
  19 C19           -2.1635    -2.8983     0.0467 C.ar    
  20 C20           -1.0288    -2.0918    -0.0336 C.ar    
  21 C21            0.2253    -2.6711    -0.1501 C.ar    
  22 C22           -0.2122     0.0863    -0.5542 C.2     
  23 C23            0.6828     2.2004    -1.2074 C.3     
  24 C24            0.3251     3.6868    -1.1474 C.3     
  25 H25            1.1464    -6.5146    -1.2172 H       
  26 H26            1.3006    -6.5551     0.5556 H       
  27 H27            0.1293   -10.9070    -2.4766 H       
  28 H28            0.5098   -11.0050     1.7702 H       
  29 H29           -1.4334    -6.8083    -0.1061 H       
  30 H30            1.3442    -8.1350    -3.2063 H       
  31 H31           -0.2924    -8.7584    -3.5248 H       
  32 H32           -0.0785    -7.2434    -2.6152 H       
  33 H33           -0.1924    -8.0850     2.5902 H       
  34 H34            1.3083    -8.9979     2.8780 H       
  35 H35            1.3645    -7.4421     2.0151 H       
  36 H36            1.1542   -13.0589    -0.4744 H       
  37 H37           -0.2977   -12.9440     0.5489 H       
  38 H38           -0.4528   -12.9035    -1.2238 H       
  39 H39           -2.9119    -4.9052     0.0656 H       
  40 H40            1.3297    -4.4956    -0.2829 H       
  41 H41            1.1046    -2.0467    -0.2074 H       
  42 H42           -1.9227    -0.2896     0.4447 H       
  43 H43           -4.2185    -2.8779     0.2251 H       
  44 H44           -3.5188    -1.3507     0.1994 H       
  45 H45            1.6198     2.0305    -0.6771 H       
  46 H46            0.7936     1.8951    -2.2478 H       
  47 H47           -0.6119     3.8567    -1.6776 H       
  48 H48            0.2144     3.9922    -0.1069 H       
  49 H49            1.1182     4.2705    -1.6149 H       
@<TRIPOS>BOND
   1    1   22 1
   2    1   23 1
   3    2   22 2
   4    3    7 1
   5    3   13 1
   6    3   29 1
   7    4   20 1
   8    4   22 am
   9    4   42 1
  10    5   19 1
  11    5   43 1
  12    5   44 1
  13    6    7 1
  14    6    8 ar
  15    6    9 ar
  16    7   25 1
  17    7   26 1
  18    8   11 ar
  19    8   14 1
  20    9   12 ar
  21    9   15 1
  22   10   11 ar
  23   10   12 ar
  24   10   16 1
  25   11   27 1
  26   12   28 1
  27   13   17 ar
  28   13   18 ar
  29   14   30 1
  30   14   31 1
  31   14   32 1
  32   15   33 1
  33   15   34 1
  34   15   35 1
  35   16   36 1
  36   16   37 1
  37   16   38 1
  38   17   19 ar
  39   17   39 1
  40   18   21 ar
  41   18   40 1
  42   19   20 ar
  43   20   21 ar
  44   21   41 1
  45   23   24 1
  46   23   45 1
  47   23   46 1
  48   24   47 1
  49   24   48 1
  50   24   49 1

#	End of record

