#	Name: ASD09116218
#	Creating user name:	WinNT
#	Creation time:	15. 06. 2019 21:21

#	Modifying user name:	WinNT
#	Modification time:	15. 06. 2019 21:21

#	Program:	/corina/corina34_cracker 3.40 0067  02.08.2006

@<TRIPOS>MOLECULE
ASD09116218
  76   82    0    0    0
SMALL
NO_CHARGES


@<TRIPOS>ATOM
   1 N1            -0.5651     3.1120     0.0399 N.2     
   2 N2            -1.2226     4.2792     0.4607 N.pl3   
   3 C3             0.7189     3.3794     0.0272 C.2     
   4 N4             0.9043     4.6465     0.4157 N.2     
   5 C5            -0.2581     5.2032     0.6809 C.2     
   6 N6             1.7284     2.4868    -0.3326 N.pl3   
   7 C7             3.0564     2.9256    -0.4101 C.ar    
   8 C8             4.1013     2.0484    -0.1605 C.ar    
   9 C9             5.6646     3.7037    -0.5405 C.ar    
  10 C10            4.6698     4.6374    -0.8095 C.ar    
  11 C11            3.3442     4.2478    -0.7447 C.ar    
  12 C12           -2.5987     4.4526     0.6197 C.ar    
  13 N13           -3.0583     5.3713     1.4560 N.ar    
  14 N14           -4.3148     5.5644     1.6464 N.ar    
  15 C15           -5.2305     4.8493     1.0129 C.ar    
  16 C16           -4.8390     3.8709     0.0945 C.ar    
  17 C17           -3.4913     3.6611    -0.1077 C.ar    
  18 C18           -6.6777     5.0325     1.2706 C.ar    
  19 C19           -7.4639     3.9093     1.5317 C.ar    
  20 C20           -6.8149     2.5541     1.6000 C.3     
  21 C21           -6.5011     2.0162     0.2065 C.3     
  22 C22           -5.8812     3.1041    -0.6663 C.3     
  23 C23           -7.2556     6.2971     1.2512 C.ar    
  24 C24           -8.6125     6.4321     1.4727 C.ar    
  25 C25           -9.3918     5.3144     1.7105 C.ar    
  26 C26           -8.8188     4.0547     1.7390 C.ar    
  27 N27           -0.4589     6.5020     1.1080 N.pl3   
  28 N28            5.3547     2.4547    -0.2311 N.ar    
  29 N29            7.0026     4.0858    -0.6035 N.3     
  30 C30            7.2543     5.1738     0.2422 C.3     
  31 C31            8.6783     5.7360     0.0335 C.3     
  32 C32            9.6707     4.8123     0.6926 C.3     
  33 N33           10.2076     3.7878    -0.2319 N.3     
  34 C34            9.1880     3.1952    -1.1219 C.3     
  35 C35            7.8943     2.9270    -0.3954 C.3     
  36 C36           11.3380     4.3179    -1.0060 C.3     
  37 C37           12.4989     4.6798    -0.0631 C.3     
  38 C38           13.6983     3.8065    -0.4855 C.3     
  39 C39           13.4066     3.4501    -1.9643 C.3     
  40 C40           11.8724     3.2372    -1.9684 C.3     
  41 H41            1.5109     1.5622    -0.5292 H       
  42 H42            3.8866     1.0213     0.0950 H       
  43 H43            4.9289     5.6541    -1.0654 H       
  44 H44            2.5508     4.9515    -0.9489 H       
  45 H45           -3.1387     2.9075    -0.7962 H       
  46 H46           -5.8887     2.6306     2.1695 H       
  47 H47           -7.4874     1.8617     2.1064 H       
  48 H48           -5.8029     1.1836     0.2921 H       
  49 H49           -7.4223     1.6647    -0.2583 H       
  50 H50           -6.6628     3.7897    -0.9937 H       
  51 H51           -5.4206     2.6434    -1.5402 H       
  52 H52           -6.6468     7.1693     1.0643 H       
  53 H53           -9.0657     7.4123     1.4605 H       
  54 H54          -10.4534     5.4252     1.8748 H       
  55 H55           -9.4332     3.1860     1.9240 H       
  56 H56            0.2996     7.0926     1.2378 H       
  57 H57           -1.3583     6.8231     1.2781 H       
  58 H58            6.5275     5.9598     0.0373 H       
  59 H59            7.1467     4.8521     1.2781 H       
  60 H60            8.8925     5.8004    -1.0333 H       
  61 H61            8.7487     6.7270     0.4819 H       
  62 H62           10.4995     5.4054     1.0790 H       
  63 H63            9.1820     4.3101     1.5275 H       
  64 H64            8.9958     3.8808    -1.9472 H       
  65 H65            9.5702     2.2568    -1.5238 H       
  66 H66            8.0896     2.7994     0.6694 H       
  67 H67            7.4274     2.0268    -0.7951 H       
  68 H68           11.0253     5.1979    -1.5681 H       
  69 H69           12.7502     5.7353    -0.1683 H       
  70 H70           12.2235     4.4622     0.9688 H       
  71 H71           14.6278     4.3702    -0.4051 H       
  72 H72           13.7452     2.9030     0.1225 H       
  73 H73           13.6841     4.2738    -2.6221 H       
  74 H74           13.9244     2.5346    -2.2504 H       
  75 H75           11.6244     2.2418    -1.5999 H       
  76 H76           11.4694     3.3855    -2.9702 H       
@<TRIPOS>BOND
   1    1    2 1
   2    1    3 2
   3    2   12 1
   4    2    5 1
   5    3    4 1
   6    3    6 1
   7    4    5 2
   8    5   27 1
   9    6    7 1
  10    6   41 1
  11    7    8 ar
  12    7   11 ar
  13    8   28 ar
  14    8   42 1
  15    9   10 ar
  16    9   29 1
  17    9   28 ar
  18   10   11 ar
  19   10   43 1
  20   11   44 1
  21   12   13 ar
  22   12   17 ar
  23   13   14 ar
  24   14   15 ar
  25   15   16 ar
  26   15   18 1
  27   16   17 ar
  28   16   22 1
  29   17   45 1
  30   18   19 ar
  31   18   23 ar
  32   19   20 1
  33   19   26 ar
  34   20   21 1
  35   20   46 1
  36   20   47 1
  37   21   22 1
  38   21   48 1
  39   21   49 1
  40   22   50 1
  41   22   51 1
  42   23   24 ar
  43   23   52 1
  44   24   25 ar
  45   24   53 1
  46   25   26 ar
  47   25   54 1
  48   26   55 1
  49   27   56 1
  50   27   57 1
  51   29   30 1
  52   29   35 1
  53   30   31 1
  54   30   58 1
  55   30   59 1
  56   31   32 1
  57   31   60 1
  58   31   61 1
  59   32   33 1
  60   32   62 1
  61   32   63 1
  62   33   34 1
  63   33   36 1
  64   34   35 1
  65   34   64 1
  66   34   65 1
  67   35   66 1
  68   35   67 1
  69   36   37 1
  70   36   40 1
  71   36   68 1
  72   37   38 1
  73   37   69 1
  74   37   70 1
  75   38   39 1
  76   38   71 1
  77   38   72 1
  78   39   40 1
  79   39   73 1
  80   39   74 1
  81   40   75 1
  82   40   76 1

#	End of record

