#	Name: ASD01911838
#	Creating user name:	WinNT
#	Creation time:	15. 06. 2019 19:58

#	Modifying user name:	WinNT
#	Modification time:	15. 06. 2019 19:58

#	Program:	/corina/corina34_cracker 3.40 0067  02.08.2006

@<TRIPOS>MOLECULE
ASD01911838
  39   41    0    0    0
SMALL
NO_CHARGES


@<TRIPOS>ATOM
   1 C1            -1.0604    -0.5029    -2.0839 C.ar    
   2 C2            -1.0563     0.0557    -0.8092 C.ar    
   3 C3            -1.0052     1.4359    -0.6788 C.ar    
   4 N4            -0.9611     2.2111    -1.7442 N.ar    
   5 C5            -0.9636     1.7140    -2.9654 C.ar    
   6 C6            -1.0130     0.3483    -3.1758 C.ar    
   7 O7            -1.1021    -0.7394     0.2919 O.3     
   8 C8            -1.1524    -2.0845     0.1058 C.ar    
   9 C9            -0.0018    -2.7819    -0.2365 C.ar    
  10 C10           -0.0514    -4.1496    -0.4261 C.ar    
  11 C11           -1.2459    -4.8276    -0.2762 C.ar    
  12 C12           -2.4005    -4.1351     0.0657 C.ar    
  13 C13           -2.3513    -2.7620     0.2630 C.ar    
  14 N14           -3.6096    -4.8213     0.2169 N.am    
  15 C15           -4.7718    -4.2168    -0.1001 C.2     
  16 C16           -6.0557    -4.9025     0.1572 C.ar    
  17 C17           -6.0681    -6.1760     0.7281 C.ar    
  18 C18           -7.2701    -6.8103     0.9660 C.ar    
  19 C19           -8.4612    -6.1867     0.6399 C.ar    
  20 C20           -8.4560    -4.9243     0.0732 C.ar    
  21 C21           -7.2615    -4.2767    -0.1646 C.ar    
  22 O22           -4.7640    -3.1076    -0.5975 O.2     
  23 C23           -9.7583    -4.2532    -0.2797 C.3     
  24 F24          -10.8233    -5.0958     0.0566 F       
  25 F25           -9.8715    -3.0527     0.4297 F       
  26 F26           -9.7892    -3.9880    -1.6530 F       
  27 H27           -1.0951    -1.5739    -2.2184 H       
  28 H28           -1.0020     1.8799     0.3057 H       
  29 H29           -0.9269     2.3825    -3.8128 H       
  30 H30           -1.0143    -0.0501    -4.1796 H       
  31 H31            0.9333    -2.2546    -0.3550 H       
  32 H32            0.8452    -4.6897    -0.6922 H       
  33 H33           -1.2820    -5.8967    -0.4253 H       
  34 H34           -3.2475    -2.2212     0.5292 H       
  35 H35           -3.6119    -5.7323     0.5499 H       
  36 H36           -5.1390    -6.6640     0.9828 H       
  37 H37           -7.2812    -7.7959     1.4074 H       
  38 H38           -9.3994    -6.6876     0.8282 H       
  39 H39           -7.2588    -3.2913    -0.6067 H       
@<TRIPOS>BOND
   1    1    2 ar
   2    1    6 ar
   3    1   27 1
   4    2    3 ar
   5    2    7 1
   6    3    4 ar
   7    3   28 1
   8    4    5 ar
   9    5    6 ar
  10    5   29 1
  11    6   30 1
  12    7    8 1
  13    8    9 ar
  14    8   13 ar
  15    9   10 ar
  16    9   31 1
  17   10   11 ar
  18   10   32 1
  19   11   12 ar
  20   11   33 1
  21   12   13 ar
  22   12   14 1
  23   13   34 1
  24   14   15 am
  25   14   35 1
  26   15   16 1
  27   15   22 2
  28   16   17 ar
  29   16   21 ar
  30   17   18 ar
  31   17   36 1
  32   18   19 ar
  33   18   37 1
  34   19   20 ar
  35   19   38 1
  36   20   21 ar
  37   20   23 1
  38   21   39 1
  39   23   24 1
  40   23   25 1
  41   23   26 1

#	End of record

