#	Name: ASD01812808
#	Creating user name:	WinNT
#	Creation time:	15. 06. 2019 19:29

#	Modifying user name:	WinNT
#	Modification time:	15. 06. 2019 19:29

#	Program:	/corina/corina34_cracker 3.40 0067  02.08.2006

@<TRIPOS>MOLECULE
ASD01812808
  52   56    0    0    0
SMALL
NO_CHARGES


@<TRIPOS>ATOM
   1 N1            -0.0158     1.3147     0.0093 N.ar    
   2 C2             0.0021    -0.0041     0.0020 C.ar    
   3 C3             1.1989    -0.7033    -0.0127 C.ar    
   4 C4             2.3829    -0.0013    -0.0202 C.ar    
   5 C5             2.3448     1.3978    -0.0128 C.ar    
   6 C6             1.0955     2.0332     0.0025 C.ar    
   7 C7             3.8373    -0.3889    -0.0363 C.3     
   8 N8             4.5955     0.8684    -0.0373 N.am    
   9 C9             3.7280     1.8961    -0.0237 C.2     
  10 C10            6.0558     0.9844    -0.0504 C.3     
  11 C11            6.5432     1.0311    -1.4757 C.ar    
  12 C12            6.6712     2.2480    -2.1207 C.ar    
  13 C13            7.1171     2.2964    -3.4260 C.ar    
  14 C14            7.4386     1.1168    -4.0938 C.ar    
  15 C15            7.3079    -0.1061    -3.4394 C.ar    
  16 C16            6.8664    -0.1427    -2.1322 C.ar    
  17 O17            1.0255     3.3856     0.0100 O.3     
  18 O18            4.0429     3.0706    -0.0212 O.2     
  19 C19            8.2697     0.1001    -6.2791 C.2     
  20 C20            7.9183     1.1627    -5.4979 C.2     
  21 N21            8.0932     2.2598    -6.2562 N.2     
  22 N22            8.5195     1.8988    -7.4147 N.2     
  23 N23            8.6390     0.6191    -7.4718 N.pl3   
  24 C24            9.0983    -0.1467    -8.6332 C.3     
  25 C25           -0.2795     3.9677     0.0251 C.3     
  26 C26           -0.1594     5.4699     0.0316 C.ar    
  27 C27           -1.2995     6.2558     0.0462 C.ar    
  28 C28           -1.1877     7.6357     0.0521 C.ar    
  29 C29            0.0614     8.2273     0.0434 C.ar    
  30 C30            1.1987     7.4418     0.0283 C.ar    
  31 C31            1.0883     6.0636     0.0286 C.ar    
  32 F32           -2.5200     5.6764     0.0543 F       
  33 H33           -0.9309    -0.5480     0.0080 H       
  34 H34            1.2023    -1.7833    -0.0178 H       
  35 H35            4.0797    -0.9721     0.8522 H       
  36 H36            4.0624    -0.9631    -0.9351 H       
  37 H37            6.3524     1.8979     0.4651 H       
  38 H38            6.4932     0.1235     0.4552 H       
  39 H39            6.4214     3.1618    -1.6021 H       
  40 H40            7.2164     3.2470    -3.9288 H       
  41 H41            7.5554    -1.0235    -3.9527 H       
  42 H42            6.7692    -1.0898    -1.6224 H       
  43 H43            8.2593    -0.9431    -5.9998 H       
  44 H44            8.2430    -0.4126    -9.2544 H       
  45 H45            9.7955     0.4573    -9.2140 H       
  46 H46            9.5982    -1.0544    -8.2953 H       
  47 H47           -0.8289     3.6509    -0.8614 H       
  48 H48           -0.8123     3.6419     0.9185 H       
  49 H49           -2.0762     8.2496     0.0631 H       
  50 H50            0.1488     9.3038     0.0479 H       
  51 H51            2.1743     7.9050     0.0208 H       
  52 H52            1.9776     5.4508     0.0221 H       
@<TRIPOS>BOND
   1    1    2 ar
   2    1    6 ar
   3    2    3 ar
   4    2   33 1
   5    3    4 ar
   6    3   34 1
   7    4    7 1
   8    4    5 ar
   9    5    6 ar
  10    5    9 1
  11    6   17 1
  12    7    8 1
  13    7   35 1
  14    7   36 1
  15    8    9 am
  16    8   10 1
  17    9   18 2
  18   10   11 1
  19   10   37 1
  20   10   38 1
  21   11   12 ar
  22   11   16 ar
  23   12   13 ar
  24   12   39 1
  25   13   14 ar
  26   13   40 1
  27   14   15 ar
  28   14   20 1
  29   15   16 ar
  30   15   41 1
  31   16   42 1
  32   17   25 1
  33   19   20 2
  34   19   23 1
  35   19   43 1
  36   20   21 1
  37   21   22 2
  38   22   23 1
  39   23   24 1
  40   24   44 1
  41   24   45 1
  42   24   46 1
  43   25   26 1
  44   25   47 1
  45   25   48 1
  46   26   27 ar
  47   26   31 ar
  48   27   28 ar
  49   27   32 1
  50   28   29 ar
  51   28   49 1
  52   29   30 ar
  53   29   50 1
  54   30   31 ar
  55   30   51 1
  56   31   52 1

#	End of record

