#	Name: ASD05430417
#	Creating user name:	WinNT
#	Creation time:	15. 06. 2019 21:00

#	Modifying user name:	WinNT
#	Modification time:	15. 06. 2019 21:00

#	Program:	/corina/corina34_cracker 3.40 0067  02.08.2006

@<TRIPOS>MOLECULE
ASD05430417
  56   60    0    0    0
SMALL
NO_CHARGES


@<TRIPOS>ATOM
   1 C1            -1.2078    -0.7179     0.3912 C.ar    
   2 C2            -0.0094    -0.0071     0.3223 C.ar    
   3 C3            -0.0240     1.3734     0.1647 C.ar    
   4 C4            -1.2218     2.0472     0.0757 C.ar    
   5 C5            -2.4289     1.3409     0.1436 C.ar    
   6 C6            -2.4135    -0.0502     0.2971 C.ar    
   7 C7            -4.8681     1.3633    -0.0465 C.2     
   8 C8            -3.7079     2.0574     0.0490 C.2     
   9 O9            -1.1891    -2.0685     0.5455 O.3     
  10 C10            2.2781    -0.5639    -0.4405 C.2     
  11 N11            1.2119    -0.6868     0.4126 N.pl3   
  12 C12            3.2382    -1.3919     0.0134 C.2     
  13 N13            2.7765    -2.0058     1.1130 N.2     
  14 C14            1.5640    -1.5920     1.3624 C.2     
  15 C15            4.5966    -1.5941    -0.6072 C.3     
  16 C16           -8.3468     2.9492    -1.9677 C.ar    
  17 C17           -9.4055     3.0636    -2.8493 C.ar    
  18 C18           -7.1446     3.5731    -2.2447 C.ar    
  19 C19           -7.0001     4.3125    -3.4033 C.ar    
  20 C20           -8.0597     4.4278    -4.2870 C.ar    
  21 C21           -9.2631     3.8021    -4.0088 C.ar    
  22 F22           -7.9196     5.1507    -5.4197 F       
  23 C23           -2.4532    -2.7319     0.6084 C.3     
  24 O24           -4.8777     0.0039    -0.2182 O.3     
  25 C25           -5.8382    -0.4682    -1.1737 C.3     
  26 C26           -7.2405    -0.0551    -0.7220 C.3     
  27 N27           -7.2799     1.3793    -0.4445 N.pl3   
  28 C28           -6.1733     2.0333     0.0357 C.2     
  29 C29           -8.5053     2.1488    -0.7007 C.3     
  30 C30           -8.7363     3.0956     0.4831 C.3     
  31 C31           -7.4480     3.8124     0.7972 C.2     
  32 N32           -6.2756     3.2331     0.5848 N.2     
  33 O33           -7.4851     4.9373     1.2564 O.2     
  34 H34            0.9063     1.9194     0.1122 H       
  35 H35           -1.2301     3.1203    -0.0461 H       
  36 H36           -3.3420    -0.5994     0.3496 H       
  37 H37           -3.7237     3.1373     0.0554 H       
  38 H38            2.3352     0.0714    -1.3120 H       
  39 H39            0.9445    -1.9151     2.1860 H       
  40 H40            5.3026    -0.8850    -0.1751 H       
  41 H41            4.9374    -2.6109    -0.4120 H       
  42 H42            4.5321    -1.4328    -1.6832 H       
  43 H43          -10.3440     2.5755    -2.6321 H       
  44 H44           -6.3183     3.4830    -1.5552 H       
  45 H45           -6.0611     4.8004    -3.6191 H       
  46 H46          -10.0902     3.8911    -4.6976 H       
  47 H47           -3.0231    -2.3484     1.4547 H       
  48 H48           -3.0052    -2.5501    -0.3138 H       
  49 H49           -2.2955    -3.8033     0.7322 H       
  50 H50           -5.6264    -0.0314    -2.1496 H       
  51 H51           -5.7823    -1.5548    -1.2400 H       
  52 H52           -7.9572    -0.2905    -1.5088 H       
  53 H53           -7.5056    -0.6050     0.1810 H       
  54 H54           -9.3520     1.4693    -0.7983 H       
  55 H55           -9.5048     3.8236     0.2233 H       
  56 H56           -9.0553     2.5210     1.3527 H       
@<TRIPOS>BOND
   1    1    2 ar
   2    1    9 1
   3    1    6 ar
   4    2    3 ar
   5    2   11 1
   6    3    4 ar
   7    3   34 1
   8    4    5 ar
   9    4   35 1
  10    5    6 ar
  11    5    8 1
  12    6   36 1
  13    7    8 2
  14    7   24 1
  15    7   28 1
  16    8   37 1
  17    9   23 1
  18   10   11 1
  19   10   12 2
  20   10   38 1
  21   11   14 1
  22   12   13 1
  23   12   15 1
  24   13   14 2
  25   14   39 1
  26   15   40 1
  27   15   41 1
  28   15   42 1
  29   16   17 ar
  30   16   18 ar
  31   16   29 1
  32   17   21 ar
  33   17   43 1
  34   18   19 ar
  35   18   44 1
  36   19   20 ar
  37   19   45 1
  38   20   21 ar
  39   20   22 1
  40   21   46 1
  41   23   47 1
  42   23   48 1
  43   23   49 1
  44   24   25 1
  45   25   26 1
  46   25   50 1
  47   25   51 1
  48   26   27 1
  49   26   52 1
  50   26   53 1
  51   27   28 1
  52   27   29 1
  53   28   32 2
  54   29   30 1
  55   29   54 1
  56   30   31 1
  57   30   55 1
  58   30   56 1
  59   31   32 1
  60   31   33 2

#	End of record

