#	Name: ASD01913756
#	Creating user name:	WinNT
#	Creation time:	15. 06. 2019 20:02

#	Modifying user name:	WinNT
#	Modification time:	15. 06. 2019 20:02

#	Program:	/corina/corina34_cracker 3.40 0067  02.08.2006

@<TRIPOS>MOLECULE
ASD01913756
  48   49    0    0    0
SMALL
NO_CHARGES


@<TRIPOS>ATOM
   1 O1            -0.0127     1.3449     0.0447 O.3     
   2 C2             0.0047    -0.0043     0.0285 C.2     
   3 N3             1.1951    -0.6593     0.0406 N.am    
   4 C4             1.2459    -2.0046     0.0246 C.2     
   5 C5             0.0478    -2.7584    -0.0048 C.2     
   6 C6            -1.1788    -2.0868    -0.0168 C.2     
   7 C7            -1.1878    -0.7007     0.0056 C.2     
   8 C8             0.0925    -4.2256    -0.0279 C.2     
   9 N9             1.2749    -4.8619    -0.1448 N.am    
  10 O10           -0.9378    -4.8672     0.0584 O.2     
  11 C11            1.2519     2.0097     0.0741 C.3     
  12 C12            1.0353     3.5010     0.0887 C.ar    
  13 C13            0.9158     4.1698     1.2919 C.ar    
  14 C14            0.7167     5.5401     1.3050 C.ar    
  15 C15            0.6376     6.2384     0.1122 C.ar    
  16 C16            0.7574     5.5673    -1.0902 C.ar    
  17 C17            0.9617     4.2003    -1.1018 C.ar    
  18 F18            0.5994     6.1950     2.4808 F       
  19 O19            2.3238    -2.5738     0.0350 O.2     
  20 C20            1.3331    -6.3226    -0.0491 C.3     
  21 C21            2.5651    -6.8340    -0.7985 C.3     
  22 C22            3.8267    -6.2315    -0.1769 C.3     
  23 C23            2.6260    -8.3596    -0.6986 C.3     
  24 C24            2.4747    -6.4225    -2.2693 C.3     
  25 C25            1.4236    -6.7342     1.4217 C.3     
  26 H26            2.0205    -0.1502     0.0607 H       
  27 H27           -2.1060    -2.6401    -0.0432 H       
  28 H28           -2.1261    -0.1659     0.0008 H       
  29 H29            2.0872    -4.3527    -0.2922 H       
  30 H30            1.7976     1.7131     0.9699 H       
  31 H31            1.8276     1.7348    -0.8097 H       
  32 H32            0.9774     3.6239     2.2218 H       
  33 H33            0.4820     7.3071     0.1212 H       
  34 H34            0.6957     6.1118    -2.0208 H       
  35 H35            1.0555     3.6767    -2.0418 H       
  36 H36            0.4344    -6.7519    -0.4920 H       
  37 H37            3.8911    -6.5247     0.8709 H       
  38 H38            4.7044    -6.5958    -0.7108 H       
  39 H39            3.7833    -5.1447    -0.2481 H       
  40 H40            1.7273    -8.7888    -1.1414 H       
  41 H41            3.5037    -8.7239    -1.2325 H       
  42 H42            2.6904    -8.6528     0.3492 H       
  43 H43            2.4314    -5.3356    -2.3405 H       
  44 H44            3.3524    -6.7868    -2.8032 H       
  45 H45            1.5760    -6.8517    -2.7121 H       
  46 H46            0.5459    -6.3699     1.9555 H       
  47 H47            1.4669    -7.8210     1.4929 H       
  48 H48            2.3223    -6.3050     1.8645 H       
@<TRIPOS>BOND
   1    1    2 1
   2    1   11 1
   3    2    3 1
   4    2    7 2
   5    3    4 am
   6    3   26 1
   7    4   19 2
   8    4    5 1
   9    5    6 2
  10    5    8 1
  11    6    7 1
  12    6   27 1
  13    7   28 1
  14    8    9 am
  15    8   10 2
  16    9   20 1
  17    9   29 1
  18   11   12 1
  19   11   30 1
  20   11   31 1
  21   12   13 ar
  22   12   17 ar
  23   13   14 ar
  24   13   32 1
  25   14   15 ar
  26   14   18 1
  27   15   16 ar
  28   15   33 1
  29   16   17 ar
  30   16   34 1
  31   17   35 1
  32   20   21 1
  33   20   25 1
  34   20   36 1
  35   21   22 1
  36   21   23 1
  37   21   24 1
  38   22   37 1
  39   22   38 1
  40   22   39 1
  41   23   40 1
  42   23   41 1
  43   23   42 1
  44   24   43 1
  45   24   44 1
  46   24   45 1
  47   25   46 1
  48   25   47 1
  49   25   48 1

#	End of record

