#	Name: ASD03081348
#	Creating user name:	WinNT
#	Creation time:	15. 06. 2019 20:27

#	Modifying user name:	WinNT
#	Modification time:	15. 06. 2019 20:27

#	Program:	/corina/corina34_cracker 3.40 0067  02.08.2006

@<TRIPOS>MOLECULE
ASD03081348
  29   31    0    0    0
SMALL
NO_CHARGES


@<TRIPOS>ATOM
   1 O1            -0.0162     1.3444     0.0094 O.3     
   2 C2             0.0021    -0.0041     0.0020 C.2     
   3 N3             1.2608    -0.3805    -0.0120 N.2     
   4 N4             2.0178     0.6599    -0.0137 N.2     
   5 C5             1.2726     1.7416    -0.0007 C.2     
   6 C6             0.8548     4.2023     0.0156 C.ar    
   7 C7             1.7574     3.1373     0.0017 C.ar    
   8 C8             3.1297     3.4143    -0.0094 C.ar    
   9 C9             3.5315     4.7385    -0.0061 C.ar    
  10 C10            2.5741     5.7366     0.0079 C.ar    
  11 N11            1.2870     5.4461     0.0177 N.ar    
  12 C12           -1.1766    -0.8944     0.0089 C.ar    
  13 C13           -2.4650    -0.3533     0.0246 C.ar    
  14 C14           -3.5618    -1.1919     0.0305 C.ar    
  15 C15           -3.3869    -2.5643     0.0214 C.ar    
  16 C16           -2.1138    -3.1060     0.0058 C.ar    
  17 C17           -1.0088    -2.2801    -0.0060 C.ar    
  18 C18           -1.9339    -4.6022    -0.0040 C.3     
  19 F19           -3.1877    -5.2227     0.0051 F       
  20 F20           -1.2348    -4.9803    -1.1553 F       
  21 F21           -1.2121    -4.9925     1.1291 F       
  22 Cl22          -2.6858     1.3685     0.0372 Cl      
  23 H23           -0.2069     4.0044     0.0197 H       
  24 H24            3.8561     2.6151    -0.0199 H       
  25 H25            4.5818     4.9901    -0.0140 H       
  26 H26            2.8850     6.7709     0.0105 H       
  27 H27           -4.5583    -0.7758     0.0426 H       
  28 H28           -4.2481    -3.2159     0.0268 H       
  29 H29           -0.0159    -2.7048    -0.0226 H       
@<TRIPOS>BOND
   1    1    2 1
   2    1    5 1
   3    2    3 2
   4    2   12 1
   5    3    4 1
   6    4    5 2
   7    5    7 1
   8    6    7 ar
   9    6   11 ar
  10    6   23 1
  11    7    8 ar
  12    8    9 ar
  13    8   24 1
  14    9   10 ar
  15    9   25 1
  16   10   11 ar
  17   10   26 1
  18   12   13 ar
  19   12   17 ar
  20   13   14 ar
  21   13   22 1
  22   14   15 ar
  23   14   27 1
  24   15   16 ar
  25   15   28 1
  26   16   17 ar
  27   16   18 1
  28   17   29 1
  29   18   19 1
  30   18   20 1
  31   18   21 1

#	End of record

