#	Name: ASD03731714
#	Creating user name:	WinNT
#	Creation time:	15. 06. 2019 20:46

#	Modifying user name:	WinNT
#	Modification time:	15. 06. 2019 20:46

#	Program:	/corina/corina34_cracker 3.40 0067  02.08.2006

@<TRIPOS>MOLECULE
ASD03731714
  39   40    0    0    0
SMALL
NO_CHARGES


@<TRIPOS>ATOM
   1 C1             0.7581     1.4154    -0.4019 C.2     
   2 C2             0.5737    -0.0456    -0.3015 C.ar    
   3 C3             1.5327    -0.9110    -0.8345 C.ar    
   4 C4             1.3574    -2.2733    -0.7384 C.ar    
   5 C5             0.2278    -2.7882    -0.1126 C.ar    
   6 C6            -0.7286    -1.9305     0.4189 C.ar    
   7 C7            -0.5575    -0.5670     0.3319 C.ar    
   8 O8             1.7454     1.8674    -0.9489 O.2     
   9 N9            -0.1707     2.2485     0.1078 N.am    
  10 S10            0.0362     3.8876    -0.0049 S.o2    
  11 O11           -1.1026     4.4303     0.6493 O.2     
  12 O12            1.3460     4.1109     0.4987 O.2     
  13 C13           -0.0285     4.2307    -1.7849 C.3     
  14 O14            0.0581    -4.1313    -0.0206 O.3     
  15 C15            0.5843    -4.7685     1.0581 C.ar    
  16 C16            1.1758    -4.0362     2.0775 C.ar    
  17 C17            1.7101    -4.6864     3.1730 C.ar    
  18 C18            1.6558    -6.0657     3.2542 C.ar    
  19 C19            1.0672    -6.7977     2.2395 C.ar    
  20 C20            0.5260    -6.1521     1.1448 C.ar    
  21 C21            1.0107    -8.3009     2.3309 C.3     
  22 C22            2.3532    -3.8918     4.2803 C.3     
  23 H23            2.4102    -0.5118    -1.3215 H       
  24 H24            2.0981    -2.9428    -1.1501 H       
  25 H25           -1.6050    -2.3342     0.9041 H       
  26 H26           -1.2989     0.0987     0.7487 H       
  27 H27           -0.9603     1.8879     0.5407 H       
  28 H28           -0.9934     3.9142    -2.1812 H       
  29 H29            0.1005     5.2998    -1.9538 H       
  30 H30            0.7684     3.6844    -2.2895 H       
  31 H31            1.2189    -2.9589     2.0144 H       
  32 H32            2.0740    -6.5721     4.1115 H       
  33 H33            0.0621    -6.7241     0.3548 H       
  34 H34            0.0906    -8.6000     2.8330 H       
  35 H35            1.0323    -8.7270     1.3279 H       
  36 H36            1.8683    -8.6629     2.8980 H       
  37 H37            1.6019    -3.6359     5.0274 H       
  38 H38            3.1397    -4.4866     4.7448 H       
  39 H39            2.7830    -2.9782     3.8696 H       
@<TRIPOS>BOND
   1    1    2 1
   2    1    8 2
   3    1    9 am
   4    2    3 ar
   5    2    7 ar
   6    3    4 ar
   7    3   23 1
   8    4    5 ar
   9    4   24 1
  10    5    6 ar
  11    5   14 1
  12    6    7 ar
  13    6   25 1
  14    7   26 1
  15    9   10 am
  16    9   27 1
  17   10   11 2
  18   10   12 2
  19   10   13 1
  20   13   28 1
  21   13   29 1
  22   13   30 1
  23   14   15 1
  24   15   16 ar
  25   15   20 ar
  26   16   17 ar
  27   16   31 1
  28   17   18 ar
  29   17   22 1
  30   18   19 ar
  31   18   32 1
  32   19   20 ar
  33   19   21 1
  34   20   33 1
  35   21   34 1
  36   21   35 1
  37   21   36 1
  38   22   37 1
  39   22   38 1
  40   22   39 1

#	End of record

