#	Name: ASD01001134
#	Creating user name:	WinNT
#	Creation time:	15. 06. 2019 18:55

#	Modifying user name:	WinNT
#	Modification time:	15. 06. 2019 18:55

#	Program:	/corina/corina34_cracker 3.40 0067  02.08.2006

@<TRIPOS>MOLECULE
ASD01001134
  52   54    0    0    0
SMALL
NO_CHARGES


@<TRIPOS>ATOM
   1 C1             0.3009     0.9233     0.6127 C.2     
   2 S2             0.0178    -0.8107     0.5432 S.3     
   3 C3             1.6830    -1.1370     0.7209 C.2     
   4 C4             2.3849    -0.0022     0.8238 C.2     
   5 C5             1.6399     1.1516     0.7664 C.2     
   6 C6            -0.7320     1.9578     0.5153 C.2     
   7 O7            -0.4233     3.1336     0.5755 O.2     
   8 N8            -2.0240     1.6075     0.3589 N.am    
   9 C9            -4.4030     4.6559     0.1476 C.2     
  10 C10           -5.1402     3.5445     0.0395 C.2     
  11 C11           -4.3357     2.3382     0.1075 C.2     
  12 C12           -3.0005     2.5855     0.2667 C.2     
  13 S13           -2.7025     4.2603     0.3356 S.3     
  14 C14           -4.8992     0.9881     0.0148 C.2     
  15 O15           -5.1032     0.4874    -1.0757 O.2     
  16 N16           -5.1915     0.3013     1.1369 N.am    
  17 C17           -5.8549    -1.0018     1.0464 C.3     
  18 C18           -4.7998    -2.1058     0.9517 C.3     
  19 C19           -6.0510     1.6087     3.0167 C.3     
  20 C20           -4.8457     0.8577     2.4473 C.3     
  21 C21           -4.9681     6.0630     0.1175 C.3     
  22 C22           -6.3853     6.0119    -0.4597 C.3     
  23 C23           -7.1844     4.9296     0.2724 C.3     
  24 C24           -6.6506     3.5528    -0.1349 C.3     
  25 C25           -7.0656     7.3687    -0.2671 C.3     
  26 C26           -6.3186     5.6780    -1.9514 C.3     
  27 H27            2.1131    -2.1273     0.7474 H       
  28 H28            3.4582     0.0064     0.9435 H       
  29 H29            2.0696     2.1400     0.8359 H       
  30 H30           -2.2700     0.6704     0.3109 H       
  31 H31           -6.4676    -1.1600     1.9339 H       
  32 H32           -6.4874    -1.0266     0.1590 H       
  33 H33           -4.1870    -1.9476     0.0642 H       
  34 H34           -4.1673    -2.0809     1.8391 H       
  35 H35           -5.2934    -3.0752     0.8843 H       
  36 H36           -6.2673     2.4754     2.3921 H       
  37 H37           -6.9170     0.9470     3.0324 H       
  38 H38           -5.8274     1.9386     4.0312 H       
  39 H39           -4.5687     0.0492     3.1238 H       
  40 H40           -4.0067     1.5453     2.3401 H       
  41 H41           -5.0001     6.4657     1.1299 H       
  42 H42           -4.3404     6.6956    -0.5101 H       
  43 H43           -7.0757     5.0621     1.3488 H       
  44 H44           -8.2368     5.0066    -0.0006 H       
  45 H45           -6.9045     3.3560    -1.1765 H       
  46 H46           -7.0923     2.7866     0.5021 H       
  47 H47           -6.4918     8.1392    -0.7821 H       
  48 H48           -8.0743     7.3311    -0.6784 H       
  49 H49           -7.1154     7.6025     0.7963 H       
  50 H50           -5.8372     4.7093    -2.0857 H       
  51 H51           -7.3280     5.6419    -2.3611 H       
  52 H52           -5.7432     6.4447    -2.4700 H       
@<TRIPOS>BOND
   1    1    2 1
   2    1    5 2
   3    1    6 1
   4    2    3 1
   5    3    4 2
   6    3   27 1
   7    4    5 1
   8    4   28 1
   9    5   29 1
  10    6    7 2
  11    6    8 am
  12    8   12 1
  13    8   30 1
  14    9   10 2
  15    9   13 1
  16    9   21 1
  17   10   11 1
  18   10   24 1
  19   11   12 2
  20   11   14 1
  21   12   13 1
  22   14   15 2
  23   14   16 am
  24   16   17 1
  25   16   20 1
  26   17   18 1
  27   17   31 1
  28   17   32 1
  29   18   33 1
  30   18   34 1
  31   18   35 1
  32   19   20 1
  33   19   36 1
  34   19   37 1
  35   19   38 1
  36   20   39 1
  37   20   40 1
  38   21   22 1
  39   21   41 1
  40   21   42 1
  41   22   23 1
  42   22   25 1
  43   22   26 1
  44   23   24 1
  45   23   43 1
  46   23   44 1
  47   24   45 1
  48   24   46 1
  49   25   47 1
  50   25   48 1
  51   25   49 1
  52   26   50 1
  53   26   51 1
  54   26   52 1

#	End of record

