#	Name: ASD01913692
#	Creating user name:	WinNT
#	Creation time:	15. 06. 2019 20:02

#	Modifying user name:	WinNT
#	Modification time:	15. 06. 2019 20:02

#	Program:	/corina/corina34_cracker 3.40 0067  02.08.2006

@<TRIPOS>MOLECULE
ASD01913692
  53   55    0    0    0
SMALL
NO_CHARGES


@<TRIPOS>ATOM
   1 C1            -1.2382     1.3455     0.0837 C.ar    
   2 C2            -0.9893    -0.1408     0.0796 C.3     
   3 O3            -0.4946    -0.5444     1.3581 O.3     
   4 C4            -0.2179    -1.8605     1.5231 C.ar    
   5 N5            -0.4123    -2.6993     0.5172 N.ar    
   6 C6            -0.1585    -3.9865     0.6283 C.ar    
   7 C7             0.3291    -4.5143     1.8243 C.ar    
   8 C8             0.5461    -3.6524     2.9096 C.ar    
   9 C9             0.2719    -2.3103     2.7456 C.ar    
  10 C10            0.6118    -5.9580     1.9459 C.2     
  11 N11            0.9638    -6.4776     3.1386 N.am    
  12 O12            0.5270    -6.6783     0.9701 O.2     
  13 C13            1.2444    -7.9104     3.2593 C.3     
  14 C14           -0.2398     2.2334    -0.2867 C.ar    
  15 C15           -0.5050     3.5897    -0.2712 C.ar    
  16 N16           -1.6900     4.0412     0.0906 N.ar    
  17 C17           -2.6628     3.2262     0.4489 C.ar    
  18 C18           -2.4730     1.8573     0.4524 C.ar    
  19 C19           -0.3973    -4.8984    -0.5475 C.3     
  20 C20            2.1787    -8.1488     4.4472 C.3     
  21 C21           -0.0654    -8.6697     3.4802 C.3     
  22 C22            2.4717    -9.6452     4.5732 C.3     
  23 C23            3.4060    -9.8836     5.7611 C.3     
  24 C24            4.7158    -9.1243     5.5402 C.3     
  25 C25            4.4228    -7.6279     5.4141 C.3     
  26 C26            3.4885    -7.3895     4.2263 C.3     
  27 H27           -1.9215    -0.6648    -0.1312 H       
  28 H28           -0.2542    -0.3840    -0.6876 H       
  29 H29            0.9227    -4.0295     3.8490 H       
  30 H30            0.4275    -1.6178     3.5596 H       
  31 H31            1.0314    -5.9029     3.9171 H       
  32 H32            1.7206    -8.2656     2.3454 H       
  33 H33            0.7329     1.8697    -0.5833 H       
  34 H34            0.2674     4.2878    -0.5583 H       
  35 H35           -3.6201     3.6331     0.7394 H       
  36 H36           -3.2737     1.1949     0.7466 H       
  37 H37            0.5389    -5.0520    -1.0842 H       
  38 H38           -0.7742    -5.8576    -0.1927 H       
  39 H39           -1.1292    -4.4452    -1.2161 H       
  40 H40            1.7025    -7.7936     5.3610 H       
  41 H41           -0.7310    -8.4999     2.6339 H       
  42 H42            0.1433    -9.7358     3.5700 H       
  43 H43           -0.5416    -8.3145     4.3940 H       
  44 H44            1.5386   -10.1862     4.7306 H       
  45 H45            2.9479   -10.0004     3.6594 H       
  46 H46            2.9298    -9.5284     6.6749 H       
  47 H47            3.6148   -10.9497     5.8509 H       
  48 H48            5.3814    -9.2942     6.3865 H       
  49 H49            5.1920    -9.4795     4.6263 H       
  50 H50            3.9466    -7.2727     6.3280 H       
  51 H51            5.3559    -7.0870     5.2568 H       
  52 H52            3.9647    -7.7447     3.3124 H       
  53 H53            3.2797    -6.3235     4.1364 H       
@<TRIPOS>BOND
   1    1    2 1
   2    1   14 ar
   3    1   18 ar
   4    2    3 1
   5    2   27 1
   6    2   28 1
   7    3    4 1
   8    4    5 ar
   9    4    9 ar
  10    5    6 ar
  11    6    7 ar
  12    6   19 1
  13    7    8 ar
  14    7   10 1
  15    8    9 ar
  16    8   29 1
  17    9   30 1
  18   10   11 am
  19   10   12 2
  20   11   13 1
  21   11   31 1
  22   13   20 1
  23   13   21 1
  24   13   32 1
  25   14   15 ar
  26   14   33 1
  27   15   16 ar
  28   15   34 1
  29   16   17 ar
  30   17   18 ar
  31   17   35 1
  32   18   36 1
  33   19   37 1
  34   19   38 1
  35   19   39 1
  36   20   22 1
  37   20   26 1
  38   20   40 1
  39   21   41 1
  40   21   42 1
  41   21   43 1
  42   22   23 1
  43   22   44 1
  44   22   45 1
  45   23   24 1
  46   23   46 1
  47   23   47 1
  48   24   25 1
  49   24   48 1
  50   24   49 1
  51   25   26 1
  52   25   50 1
  53   25   51 1
  54   26   52 1
  55   26   53 1

#	End of record

