#	Name: ASD08150031
#	Creating user name:	WinNT
#	Creation time:	15. 06. 2019 21:15

#	Modifying user name:	WinNT
#	Modification time:	15. 06. 2019 21:15

#	Program:	/corina/corina34_cracker 3.40 0067  02.08.2006

@<TRIPOS>MOLECULE
ASD08150031
  52   57    0    0    0
SMALL
NO_CHARGES


@<TRIPOS>ATOM
   1 N1            -0.0155     1.2942     0.0092 N.2     
   2 C2             0.0021    -0.0041     0.0020 C.2     
   3 N3             1.1490    -0.7360    -0.0129 N.am    
   4 C4             2.3563    -0.1243    -0.0211 C.2     
   5 C5             2.3705     1.3450    -0.0133 C.ar    
   6 C6             3.5614     2.0711    -0.0203 C.ar    
   7 C7             3.5160     3.4496    -0.0121 C.ar    
   8 C8             2.2980     4.1155     0.0031 C.ar    
   9 C9             1.1114     3.4169     0.0107 C.ar    
  10 C10            1.1299     2.0209     0.0021 C.ar    
  11 O11            3.3904    -0.7665    -0.0340 O.2     
  12 C12           -1.3144    -0.7374     0.0112 C.3     
  13 S13           -2.6718     0.4598     0.0311 S.3     
  14 N14           -5.9166     1.0930     0.0666 N.2     
  15 C15           -7.2138     0.9883     0.0790 C.2     
  16 N16           -7.5749    -0.3262     0.0762 N.pl3   
  17 C17           -6.4217    -1.0693     0.0611 C.ar    
  18 N18           -6.1426    -2.3689     0.0516 N.ar    
  19 C19           -4.8944    -2.7874     0.0367 C.ar    
  20 N20           -3.8683    -1.9568     0.0300 N.ar    
  21 C21           -4.0490    -0.6392     0.0389 C.ar    
  22 C22           -5.3646    -0.1439     0.0551 C.ar    
  23 Cl23           5.0888     1.2462    -0.0387 Cl      
  24 C24            1.0568    -2.8410     1.1879 C.ar    
  25 C25            1.0798    -2.1331    -0.0193 C.ar    
  26 C26            1.0332    -2.8223    -1.2218 C.ar    
  27 C27            0.9643    -4.2025    -1.2261 C.ar    
  28 C28            0.9415    -4.9044    -0.0339 C.ar    
  29 C29            0.9869    -4.2316     1.1707 C.ar    
  30 C30            1.1123    -2.1137     2.4793 C.ar    
  31 C31            0.1849    -2.3950     3.4809 C.ar    
  32 C32            0.2416    -1.7154     4.6808 C.ar    
  33 C33            1.2166    -0.7567     4.8902 C.ar    
  34 C34            2.1394    -0.4731     3.8995 C.ar    
  35 C35            2.0957    -1.1505     2.6979 C.ar    
  36 H36            4.4358     4.0157    -0.0171 H       
  37 H37            2.2809     5.1954     0.0094 H       
  38 H38            0.1703     3.9466     0.0232 H       
  39 H39           -1.3907    -1.3583    -0.8814 H       
  40 H40           -1.3730    -1.3678     0.8984 H       
  41 H41           -7.9025     1.8202     0.0899 H       
  42 H42           -8.4809    -0.6726     0.0835 H       
  43 H43           -4.7027    -3.8502     0.0297 H       
  44 H44            1.0503    -2.2800    -2.1556 H       
  45 H45            0.9278    -4.7358    -2.1645 H       
  46 H46            0.8876    -5.9830    -0.0458 H       
  47 H47            0.9685    -4.7833     2.0990 H       
  48 H48           -0.5769    -3.1430     3.3183 H       
  49 H49           -0.4767    -1.9323     5.4575 H       
  50 H50            1.2573    -0.2274     5.8307 H       
  51 H51            2.8980     0.2768     4.0682 H       
  52 H52            2.8196    -0.9317     1.9268 H       
@<TRIPOS>BOND
   1    1    2 2
   2    1   10 1
   3    2    3 1
   4    2   12 1
   5    3    4 am
   6    3   25 1
   7    4    5 1
   8    4   11 2
   9    5    6 ar
  10    5   10 ar
  11    6    7 ar
  12    6   23 1
  13    7    8 ar
  14    7   36 1
  15    8    9 ar
  16    8   37 1
  17    9   10 ar
  18    9   38 1
  19   12   13 1
  20   12   39 1
  21   12   40 1
  22   13   21 1
  23   14   15 2
  24   14   22 1
  25   15   16 1
  26   15   41 1
  27   16   17 1
  28   16   42 1
  29   17   18 ar
  30   17   22 ar
  31   18   19 ar
  32   19   20 ar
  33   19   43 1
  34   20   21 ar
  35   21   22 ar
  36   24   25 ar
  37   24   29 ar
  38   24   30 1
  39   25   26 ar
  40   26   27 ar
  41   26   44 1
  42   27   28 ar
  43   27   45 1
  44   28   29 ar
  45   28   46 1
  46   29   47 1
  47   30   31 ar
  48   30   35 ar
  49   31   32 ar
  50   31   48 1
  51   32   33 ar
  52   32   49 1
  53   33   34 ar
  54   33   50 1
  55   34   35 ar
  56   34   51 1
  57   35   52 1

#	End of record

