#	Name: ASD01884028
#	Creating user name:	WinNT
#	Creation time:	15. 06. 2019 19:47

#	Modifying user name:	WinNT
#	Modification time:	15. 06. 2019 19:47

#	Program:	/corina/corina34_cracker 3.40 0067  02.08.2006

@<TRIPOS>MOLECULE
ASD01884028
  55   59    0    0    0
SMALL
NO_CHARGES


@<TRIPOS>ATOM
   1 C1            -0.0168     1.3863     0.0097 C.ar    
   2 C2             0.0021    -0.0041     0.0020 C.ar    
   3 C3             1.2221    -0.6792    -0.0133 C.ar    
   4 C4             2.4177     0.0462    -0.0208 C.ar    
   5 C5             2.3890     1.4278    -0.0131 C.ar    
   6 C6             1.1821     2.0988     0.0020 C.ar    
   7 C7            -1.3116     2.1114     0.0197 C.ar    
   8 C8            -1.3327     3.5048     0.0274 C.ar    
   9 C9            -2.5395     4.1740     0.0368 C.ar    
  10 C10           -3.7269     3.4641     0.0386 C.ar    
  11 C11           -3.7118     2.0813     0.0310 C.ar    
  12 C12           -2.5103     1.4017     0.0158 C.ar    
  13 C13            1.2516    -2.1555    -0.0210 C.2     
  14 O14            2.3154    -2.7418    -0.0343 O.2     
  15 O15            0.0986    -2.8523    -0.0133 O.3     
  16 C16           -2.5640     5.6807     0.0456 C.3     
  17 O17           -2.5778     6.1648    -1.2989 O.3     
  18 O18           -2.6553    10.2004    -4.0217 O.3     
  19 N19           -2.6762    11.5618    -3.6425 N.am    
  20 C20           -2.6717    11.6391    -2.2951 C.2     
  21 C21           -2.6466    10.2580    -1.7946 C.ar    
  22 C22           -2.6376     9.4203    -2.9226 C.ar    
  23 C23           -2.6149     8.0425    -2.7472 C.ar    
  24 C24           -2.6005     7.5114    -1.4689 C.ar    
  25 C25           -2.6096     8.3488    -0.3557 C.ar    
  26 C26           -2.6323     9.7049    -0.5121 C.ar    
  27 O27           -2.6853    12.6561    -1.6244 O.2     
  28 C28           -2.6983    12.7025    -4.5616 C.3     
  29 C29           -3.9631    13.5461    -4.3243 C.3     
  30 C30           -3.4834    14.9534    -3.9129 C.3     
  31 C31           -2.0542    15.0545    -4.5012 C.3     
  32 C32           -1.4942    13.6265    -4.2861 C.3     
  33 Cl33           3.9392    -0.7895    -0.0392 Cl      
  34 H34           -0.9245    -0.5589     0.0082 H       
  35 H35            3.3141     1.9850    -0.0186 H       
  36 H36            1.1666     3.1787     0.0080 H       
  37 H37           -0.4062     4.0599     0.0264 H       
  38 H38           -4.6692     3.9918     0.0463 H       
  39 H39           -4.6417     1.5320     0.0328 H       
  40 H40           -2.4997     0.3218     0.0053 H       
  41 H41            0.1684    -3.8168    -0.0188 H       
  42 H42           -3.4573     6.0266     0.5655 H       
  43 H43           -1.6776     6.0555     0.5575 H       
  44 H44           -2.6089     7.3875    -3.6058 H       
  45 H45           -2.5986     7.9229     0.6367 H       
  46 H46           -2.6389    10.3490     0.3548 H       
  47 H47           -2.6719    12.3511    -5.5930 H       
  48 H48           -4.5501    13.6048    -5.2409 H       
  49 H49           -4.5605    13.1068    -3.5253 H       
  50 H50           -4.1289    15.7179    -4.3452 H       
  51 H51           -3.4564    15.0449    -2.8271 H       
  52 H52           -2.0898    15.2997    -5.5626 H       
  53 H53           -1.4622    15.7881    -3.9538 H       
  54 H54           -1.1459    13.5038    -3.2605 H       
  55 H55           -0.6879    13.4228    -4.9907 H       
@<TRIPOS>BOND
   1    1    2 ar
   2    1    6 ar
   3    1    7 1
   4    2    3 ar
   5    2   34 1
   6    3    4 ar
   7    3   13 1
   8    4    5 ar
   9    4   33 1
  10    5    6 ar
  11    5   35 1
  12    6   36 1
  13    7    8 ar
  14    7   12 ar
  15    8    9 ar
  16    8   37 1
  17    9   10 ar
  18    9   16 1
  19   10   11 ar
  20   10   38 1
  21   11   12 ar
  22   11   39 1
  23   12   40 1
  24   13   14 2
  25   13   15 1
  26   15   41 1
  27   16   17 1
  28   16   42 1
  29   16   43 1
  30   17   24 1
  31   18   19 1
  32   18   22 1
  33   19   20 am
  34   19   28 1
  35   20   21 1
  36   20   27 2
  37   21   22 ar
  38   21   26 ar
  39   22   23 ar
  40   23   24 ar
  41   23   44 1
  42   24   25 ar
  43   25   26 ar
  44   25   45 1
  45   26   46 1
  46   28   29 1
  47   28   32 1
  48   28   47 1
  49   29   30 1
  50   29   48 1
  51   29   49 1
  52   30   31 1
  53   30   50 1
  54   30   51 1
  55   31   32 1
  56   31   52 1
  57   31   53 1
  58   32   54 1
  59   32   55 1

#	End of record

