#	Name: ASD00171055
#	Creating user name:	WinNT
#	Creation time:	15. 06. 2019 18:32

#	Modifying user name:	WinNT
#	Modification time:	15. 06. 2019 18:32

#	Program:	/corina/corina34_cracker 3.40 0067  02.08.2006

@<TRIPOS>MOLECULE
ASD00171055
  69   72    0    0    0
SMALL
NO_CHARGES


@<TRIPOS>ATOM
   1 C1            -0.0925     1.5267     0.0077 C.ar    
   2 C2            -0.1190     0.1362     0.0778 C.ar    
   3 C3            -1.3118    -0.5285     0.1032 C.ar    
   4 C4            -2.5145     0.1872     0.0582 C.ar    
   5 C5            -2.4907     1.5865    -0.0124 C.ar    
   6 C6            -1.2848     2.2493    -0.0317 C.ar    
   7 Cl7           -1.2475     3.9827    -0.1185 Cl      
   8 C8            -3.7975    -0.5269     0.0844 C.2     
   9 C9            -4.9570     0.1653     0.0410 C.2     
  10 C10           -6.2338    -0.5454     0.0671 C.2     
  11 N11           -7.3887     0.1462     0.1332 N.am    
  12 O12           -6.2542    -1.7620     0.0291 O.2     
  13 C13           -7.3778     1.6059     0.3032 C.3     
  14 C14           -8.1877     2.2380    -0.8355 C.3     
  15 N15           -9.4806     1.5459    -0.9326 N.am    
  16 C16           -9.4915     0.0861    -1.1026 C.3     
  17 C17           -8.6815    -0.5453     0.0305 C.3     
  18 S18            1.4511     2.3757    -0.0240 S.3     
  19 C19            1.6381     2.7947    -1.7252 C.ar    
  20 C20          -10.6355     2.2374    -0.8665 C.2     
  21 C21          -11.9524     1.5050    -0.8492 C.3     
  22 O22          -10.6149     3.4492    -0.8209 O.2     
  23 C23            0.6213     2.5231    -2.6248 C.ar    
  24 C24            0.7599     2.8500    -3.9661 C.ar    
  25 C25            1.9018     3.4456    -4.4224 C.ar    
  26 C26            2.9430     3.7301    -3.5335 C.ar    
  27 C27            2.8115     3.4084    -2.1728 C.ar    
  28 C28            4.2651     4.3438    -3.6787 C.2     
  29 C29            4.8299     4.3524    -2.4607 C.2     
  30 N30            3.9758     3.7982    -1.5476 N.pl3   
  31 C31            4.8757     4.8660    -4.9536 C.3     
  32 N32            4.3332     6.1994    -5.2462 N.3     
  33 C33            4.7558     7.1739    -4.2315 C.3     
  34 C34            4.7190     6.6409    -6.5931 C.3     
  35 C35            4.8105     2.2387     0.1414 C.3     
  36 C36            4.2573     3.6413    -0.1185 C.3     
  37 H37            0.8070    -0.4186     0.1119 H       
  38 H38           -1.3274    -1.6070     0.1576 H       
  39 H39           -3.4156     2.1431    -0.0476 H       
  40 H40           -3.8142    -1.6055     0.1385 H       
  41 H41           -4.9402     1.2438    -0.0131 H       
  42 H42           -7.8285     1.8661     1.2609 H       
  43 H43           -6.3512     1.9706     0.2681 H       
  44 H44           -8.3533     3.2944    -0.6241 H       
  45 H45           -7.6441     2.1310    -1.7743 H       
  46 H46          -10.5181    -0.2785    -1.0675 H       
  47 H47           -9.0408    -0.1740    -2.0603 H       
  48 H48           -8.5167    -1.6015    -0.1821 H       
  49 H49           -9.2229    -0.4389     0.9706 H       
  50 H50          -11.7773     0.4392    -0.9957 H       
  51 H51          -12.4440     1.6639     0.1106 H       
  52 H52          -12.5884     1.8821    -1.6501 H       
  53 H53           -0.2873     2.0524    -2.2796 H       
  54 H54           -0.0420     2.6315    -4.6557 H       
  55 H55            2.0002     3.6959    -5.4684 H       
  56 H56            5.8118     4.7414    -2.2351 H       
  57 H57            5.9576     4.9312    -4.8382 H       
  58 H58            4.6381     4.1890    -5.7742 H       
  59 H59            5.8440     7.2348    -4.2172 H       
  60 H60            4.3403     8.1525    -4.4722 H       
  61 H61            4.3967     6.8576    -3.2521 H       
  62 H62            4.3332     5.9371    -7.3306 H       
  63 H63            4.3043     7.6307    -6.7837 H       
  64 H64            5.8059     6.6825    -6.6643 H       
  65 H65            4.0758     1.4953    -0.1679 H       
  66 H66            5.7298     2.0996    -0.4274 H       
  67 H67            5.0199     2.1220     1.2047 H       
  68 H68            4.9920     4.3847     0.1908 H       
  69 H69            3.3380     3.7805     0.4503 H       
@<TRIPOS>BOND
   1    1    2 ar
   2    1   18 1
   3    1    6 ar
   4    2    3 ar
   5    2   37 1
   6    3    4 ar
   7    3   38 1
   8    4    5 ar
   9    4    8 1
  10    5    6 ar
  11    5   39 1
  12    6    7 1
  13    8    9 2
  14    8   40 1
  15    9   10 1
  16    9   41 1
  17   10   11 am
  18   10   12 2
  19   11   13 1
  20   11   17 1
  21   13   14 1
  22   13   42 1
  23   13   43 1
  24   14   15 1
  25   14   44 1
  26   14   45 1
  27   15   16 1
  28   15   20 am
  29   16   17 1
  30   16   46 1
  31   16   47 1
  32   17   48 1
  33   17   49 1
  34   18   19 1
  35   19   23 ar
  36   19   27 ar
  37   20   21 1
  38   20   22 2
  39   21   50 1
  40   21   51 1
  41   21   52 1
  42   23   24 ar
  43   23   53 1
  44   24   25 ar
  45   24   54 1
  46   25   26 ar
  47   25   55 1
  48   26   27 ar
  49   26   28 1
  50   27   30 1
  51   28   29 2
  52   28   31 1
  53   29   30 1
  54   29   56 1
  55   30   36 1
  56   31   32 1
  57   31   57 1
  58   31   58 1
  59   32   33 1
  60   32   34 1
  61   33   59 1
  62   33   60 1
  63   33   61 1
  64   34   62 1
  65   34   63 1
  66   34   64 1
  67   35   36 1
  68   35   65 1
  69   35   66 1
  70   35   67 1
  71   36   68 1
  72   36   69 1

#	End of record

