#	Name: ASD01811325
#	Creating user name:	WinNT
#	Creation time:	15. 06. 2019 19:26

#	Modifying user name:	WinNT
#	Modification time:	15. 06. 2019 19:26

#	Program:	/corina/corina34_cracker 3.40 0067  02.08.2006

@<TRIPOS>MOLECULE
ASD01811325
  62   65    0    0    0
SMALL
NO_CHARGES


@<TRIPOS>ATOM
   1 N1            -0.0369     1.4006     0.3510 N.am    
   2 C2            -0.0604     0.1000    -0.0017 C.2     
   3 O3             0.9095    -0.4027    -0.5357 O.2     
   4 N4            -1.1588    -0.6434     0.2374 N.am    
   5 C5            -0.5523    -2.8999     0.9649 C.3     
   6 C6            -1.1843    -2.0571    -0.1460 C.3     
   7 C7            -2.6343    -2.5051    -0.3539 C.3     
   8 C8            -2.6532    -4.0021    -0.6777 C.3     
   9 C9            -1.9645    -4.7698     0.4537 C.3     
  10 O10           -0.6305    -4.2831     0.6146 O.3     
  11 C11            1.1323     2.1511     0.1804 C.ar    
  12 C12            1.0516     3.5147    -0.0757 C.ar    
  13 C13            2.2031     4.2601    -0.2453 C.ar    
  14 C14            3.4408     3.6552    -0.1615 C.ar    
  15 C15            3.5326     2.2865     0.0957 C.ar    
  16 C16            2.3705     1.5353     0.2725 C.ar    
  17 C17           -0.2960     4.1828    -0.1693 C.3     
  18 C18            4.8573     1.6358     0.1856 C.2     
  19 O19            4.9976     0.4884    -0.1904 O.2     
  20 N20            5.9092     2.3148     0.6844 N.am    
  21 C21            7.2546     1.7246     0.6732 C.3     
  22 C22            7.8238     1.7677     2.0948 C.3     
  23 C23            7.7724     3.2052     2.6172 C.3     
  24 C24            6.3186     3.6810     2.6644 C.3     
  25 C25            5.7333     3.6619     1.2441 C.3     
  26 C26            8.3629     3.2573     4.0028 C.ar    
  27 C27            7.5635     2.9680     5.0943 C.ar    
  28 C28            8.1087     3.0162     6.3649 C.ar    
  29 C29            9.4605     3.3594     6.4944 C.ar    
  30 C30           10.1987     3.6372     5.3428 C.ar    
  31 N31            9.6348     3.5728     4.1544 N.ar    
  32 C32           10.0747     3.4245     7.7864 C.1     
  33 N33           10.5619     3.4762     8.8113 N.1     
  34 H34           -0.8315     1.8176     0.7193 H       
  35 H35           -1.9326    -0.2424     0.6634 H       
  36 H36            0.4924    -2.6146     1.0879 H       
  37 H37           -1.0880    -2.7306     1.8990 H       
  38 H38           -0.6237    -2.1939    -1.0707 H       
  39 H39           -3.2066    -2.3215     0.5555 H       
  40 H40           -3.0731    -1.9474    -1.1812 H       
  41 H41           -3.6847    -4.3412    -0.7728 H       
  42 H42           -2.1229    -4.1790    -1.6135 H       
  43 H43           -2.5186    -4.6250     1.3811 H       
  44 H44           -1.9370    -5.8315     0.2084 H       
  45 H45            2.1340     5.3193    -0.4445 H       
  46 H46            4.3383     4.2409    -0.2954 H       
  47 H47            2.4353     0.4767     0.4762 H       
  48 H48           -0.5963     4.5349     0.8176 H       
  49 H49           -0.2354     5.0287    -0.8540 H       
  50 H50           -1.0310     3.4679    -0.5392 H       
  51 H51            7.1972     0.6904     0.3338 H       
  52 H52            7.8986     2.2956     0.0043 H       
  53 H53            7.2308     1.1233     2.7438 H       
  54 H54            8.8573     1.4214     2.0836 H       
  55 H55            8.3453     3.8533     1.9540 H       
  56 H56            5.7397     3.0186     3.3080 H       
  57 H57            6.2807     4.6965     3.0585 H       
  58 H58            6.2558     4.3876     0.6209 H       
  59 H59            4.6717     3.9063     1.2816 H       
  60 H60            6.5245     2.7075     4.9559 H       
  61 H61            7.5074     2.7953     7.2344 H       
  62 H62           11.2420     3.9032     5.4267 H       
@<TRIPOS>BOND
   1    1    2 am
   2    1   11 1
   3    1   34 1
   4    2    3 2
   5    2    4 am
   6    4    6 1
   7    4   35 1
   8    5    6 1
   9    5   10 1
  10    5   36 1
  11    5   37 1
  12    6    7 1
  13    6   38 1
  14    7    8 1
  15    7   39 1
  16    7   40 1
  17    8    9 1
  18    8   41 1
  19    8   42 1
  20    9   10 1
  21    9   43 1
  22    9   44 1
  23   11   12 ar
  24   11   16 ar
  25   12   13 ar
  26   12   17 1
  27   13   14 ar
  28   13   45 1
  29   14   15 ar
  30   14   46 1
  31   15   16 ar
  32   15   18 1
  33   16   47 1
  34   17   48 1
  35   17   49 1
  36   17   50 1
  37   18   19 2
  38   18   20 am
  39   20   21 1
  40   20   25 1
  41   21   22 1
  42   21   51 1
  43   21   52 1
  44   22   23 1
  45   22   53 1
  46   22   54 1
  47   23   24 1
  48   23   26 1
  49   23   55 1
  50   24   25 1
  51   24   56 1
  52   24   57 1
  53   25   58 1
  54   25   59 1
  55   26   27 ar
  56   26   31 ar
  57   27   28 ar
  58   27   60 1
  59   28   29 ar
  60   28   61 1
  61   29   30 ar
  62   29   32 1
  63   30   31 ar
  64   30   62 1
  65   32   33 3

#	End of record

