#	Name: ASD04880408
#	Creating user name:	WinNT
#	Creation time:	15. 06. 2019 20:53

#	Modifying user name:	WinNT
#	Modification time:	15. 06. 2019 20:53

#	Program:	/corina/corina34_cracker 3.40 0067  02.08.2006

@<TRIPOS>MOLECULE
ASD04880408
  51   53    0    0    0
SMALL
NO_CHARGES


@<TRIPOS>ATOM
   1 C1            -0.0140     1.4088    -0.2543 C.ar    
   2 C2             0.0082     0.0162    -0.2881 C.ar    
   3 C3            -1.1789    -0.7010    -0.2515 C.ar    
   4 C4            -2.3864    -0.0390    -0.1810 C.ar    
   5 C5            -2.4163     1.3575    -0.1464 C.ar    
   6 C6            -1.2203     2.0794    -0.1784 C.ar    
   7 O7             1.1517     2.1084    -0.2904 O.3     
   8 O8             1.1958    -0.6414    -0.3575 O.3     
   9 C9             1.1459    -2.0692    -0.3888 C.3     
  10 C10            1.0544     3.5336    -0.2525 C.3     
  11 C11           -3.7061     2.0674    -0.0716 C.2     
  12 C12           -5.0649     1.4056    -0.0265 C.3     
  13 N13           -3.8491     3.3473    -0.0291 N.2     
  14 N14           -5.1751     3.7699     0.0390 N.am    
  15 C15           -6.0515     2.5879     0.0460 C.3     
  16 C16           -6.9748     2.5950    -1.1740 C.3     
  17 C17           -6.8666     2.5295     1.3395 C.3     
  18 C18           -5.5874     5.0519     0.0930 C.2     
  19 O19           -6.7745     5.3112     0.0466 O.2     
  20 C20           -4.5968     6.1427     0.2087 C.ar    
  21 C21           -5.0070     7.4732     0.1209 C.ar    
  22 C22           -4.0730     8.4899     0.2307 C.ar    
  23 C23           -2.7333     8.1843     0.4274 C.ar    
  24 C24           -2.3250     6.8658     0.5142 C.ar    
  25 C25           -3.2477     5.8453     0.4120 C.ar    
  26 O26           -4.4682     9.7874     0.1453 O.3     
  27 C27           -3.4519    10.7845     0.2672 C.3     
  28 F28           -2.5054    10.6123    -0.7485 F       
  29 F29           -4.0287    12.0543     0.1566 F       
  30 F30           -2.8266    10.6632     1.5128 F       
  31 H31           -1.1571    -1.7805    -0.2786 H       
  32 H32           -3.3089    -0.5999    -0.1530 H       
  33 H33           -1.2388     3.1589    -0.1514 H       
  34 H34            0.6606    -2.4357     0.5157 H       
  35 H35            0.5798    -2.3939    -1.2619 H       
  36 H36            2.1591    -2.4671    -0.4443 H       
  37 H37            0.5576     3.8395     0.6682 H       
  38 H38            2.0539     3.9670    -0.2874 H       
  39 H39            0.4775     3.8813    -1.1095 H       
  40 H40           -5.2352     0.8203    -0.9300 H       
  41 H41           -5.1550     0.7776     0.8598 H       
  42 H42           -6.3746     2.6104    -2.0838 H       
  43 H43           -7.5968     1.7000    -1.1642 H       
  44 H44           -7.6107     3.4798    -1.1432 H       
  45 H45           -7.5008     3.4133     1.4095 H       
  46 H46           -7.4891     1.6348     1.3366 H       
  47 H47           -6.1905     2.4990     2.1939 H       
  48 H48           -6.0495     7.7097    -0.0325 H       
  49 H49           -2.0070     8.9791     0.5127 H       
  50 H50           -1.2812     6.6345     0.6670 H       
  51 H51           -2.9255     4.8167     0.4806 H       
@<TRIPOS>BOND
   1    1    2 ar
   2    1    7 1
   3    1    6 ar
   4    2    3 ar
   5    2    8 1
   6    3    4 ar
   7    3   31 1
   8    4    5 ar
   9    4   32 1
  10    5    6 ar
  11    5   11 1
  12    6   33 1
  13    7   10 1
  14    8    9 1
  15    9   34 1
  16    9   35 1
  17    9   36 1
  18   10   37 1
  19   10   38 1
  20   10   39 1
  21   11   12 1
  22   11   13 2
  23   12   15 1
  24   12   40 1
  25   12   41 1
  26   13   14 1
  27   14   15 1
  28   14   18 am
  29   15   16 1
  30   15   17 1
  31   16   42 1
  32   16   43 1
  33   16   44 1
  34   17   45 1
  35   17   46 1
  36   17   47 1
  37   18   19 2
  38   18   20 1
  39   20   21 ar
  40   20   25 ar
  41   21   22 ar
  42   21   48 1
  43   22   23 ar
  44   22   26 1
  45   23   24 ar
  46   23   49 1
  47   24   25 ar
  48   24   50 1
  49   25   51 1
  50   26   27 1
  51   27   28 1
  52   27   29 1
  53   27   30 1

#	End of record

