#	Name: ASD01410098
#	Creating user name:	WinNT
#	Creation time:	15. 06. 2019 19:16

#	Modifying user name:	WinNT
#	Modification time:	15. 06. 2019 19:16

#	Program:	/corina/corina34_cracker 3.40 0067  02.08.2006

@<TRIPOS>MOLECULE
ASD01410098
  79   83    0    0    0
SMALL
NO_CHARGES


@<TRIPOS>ATOM
   1 C1            -0.0181     1.3654     0.2791 C.ar    
   2 C2            -0.0036    -0.0287     0.1257 C.ar    
   3 C3            -1.1703    -0.7192    -0.0068 C.ar    
   4 C4            -2.3916    -0.0373     0.0105 C.ar    
   5 C5            -2.4188     1.3635     0.1646 C.ar    
   6 C6            -1.2273     2.0582     0.3035 C.ar    
   7 C7            -3.7879    -0.4572    -0.1025 C.2     
   8 C8            -4.5416     0.6529    -0.0151 C.2     
   9 N9            -3.7422     1.7484     0.1444 N.pl3   
  10 C10           -6.0467     0.6837    -0.0840 C.3     
  11 C11           -4.2875    -1.8675    -0.2827 C.3     
  12 C12           -3.7176    -2.4489    -1.5782 C.3     
  13 C13           -4.2249    -3.8807    -1.7611 C.3     
  14 C14           -3.7738    -4.7369    -0.5761 C.3     
  15 C15           -4.3438    -4.1556     0.7193 C.3     
  16 C16           -3.8365    -2.7238     0.9023 C.3     
  17 C17            1.2518     2.1010     0.4215 C.2     
  18 O18            2.4225     1.4338     0.4039 O.3     
  19 C19           -4.2199     3.1272     0.2752 C.3     
  20 C20           -4.4882     3.4303     1.7268 C.2     
  21 N21           -4.9384     4.6479     2.0889 N.am    
  22 O22            1.2427     3.3087     0.5546 O.2     
  23 O23           -4.2991     2.5785     2.5692 O.2     
  24 C24           -5.2046     4.9584     3.5001 C.3     
  25 C25           -6.6359     5.4898     3.6265 C.3     
  26 C26           -6.8216     6.6750     2.6763 C.3     
  27 C27           -6.6034     6.2134     1.2336 C.3     
  28 C28           -5.1664     5.6920     1.0806 C.3     
  29 N29           -8.1830     7.2080     2.8190 N.3     
  30 C30           -8.3612     8.4205     2.0090 C.3     
  31 C31           -9.1853     6.1915     2.4727 C.3     
  32 C32           -6.5074     0.1168    -1.4283 C.3     
  33 C33           -8.0355     0.1480    -1.4982 C.3     
  34 C34           -8.6153    -0.6975    -0.3625 C.3     
  35 C35           -8.1546    -0.1306     0.9818 C.3     
  36 C36           -6.6265    -0.1618     1.0517 C.3     
  37 H37            0.9379    -0.5576     0.1120 H       
  38 H38           -1.1524    -1.7925    -0.1253 H       
  39 H39           -1.2355     3.1316     0.4223 H       
  40 H40           -6.3940     1.7121     0.0148 H       
  41 H41           -5.3763    -1.8634    -0.3344 H       
  42 H42           -4.0389    -1.8389    -2.4224 H       
  43 H43           -2.6288    -2.4530    -1.5264 H       
  44 H44           -5.3136    -3.8766    -1.8129 H       
  45 H45           -3.8189    -4.2948    -2.6840 H       
  46 H46           -4.1352    -5.7570    -0.7065 H       
  47 H47           -2.6851    -4.7410    -0.5244 H       
  48 H48           -5.4325    -4.1515     0.6676 H       
  49 H49           -4.0224    -4.7656     1.5636 H       
  50 H50           -2.7477    -2.7279     0.9540 H       
  51 H51           -4.2425    -2.3096     1.8252 H       
  52 H52            3.2286     1.9591     0.5007 H       
  53 H53           -3.4617     3.8119    -0.1048 H       
  54 H54           -5.1393     3.2490    -0.2974 H       
  55 H55           -5.0960     4.0548     4.0998 H       
  56 H56           -4.5017     5.7160     3.8464 H       
  57 H57           -7.3412     4.7006     3.3660 H       
  58 H58           -6.8143     5.8140     4.6518 H       
  59 H59           -6.0993     7.4537     2.9216 H       
  60 H60           -7.3091     5.4174     0.9956 H       
  61 H61           -6.7587     7.0526     0.5556 H       
  62 H62           -4.4628     6.5111     1.2294 H       
  63 H63           -5.0347     5.2708     0.0840 H       
  64 H64           -8.1863     8.1851     0.9592 H       
  65 H65           -9.3776     8.7942     2.1331 H       
  66 H66           -7.6520     9.1818     2.3337 H       
  67 H67           -9.0752     5.3324     3.1345 H       
  68 H68          -10.1842     6.6125     2.5870 H       
  69 H69           -9.0403     5.8753     1.4397 H       
  70 H70           -6.0943     0.7191    -2.2374 H       
  71 H71           -6.1601    -0.9117    -1.5271 H       
  72 H72           -8.3828     1.1764    -1.3994 H       
  73 H73           -8.3637    -0.2559    -2.4560 H       
  74 H74           -9.7040    -0.6753    -0.4123 H       
  75 H75           -8.2680    -1.7260    -0.4613 H       
  76 H76           -8.5019     0.8979     1.0806 H       
  77 H77           -8.5677    -0.7329     1.7909 H       
  78 H78           -6.2792    -1.1902     0.9529 H       
  79 H79           -6.2983     0.2421     2.0095 H       
@<TRIPOS>BOND
   1    1    2 ar
   2    1   17 1
   3    1    6 ar
   4    2    3 ar
   5    2   37 1
   6    3    4 ar
   7    3   38 1
   8    4    5 ar
   9    4    7 1
  10    5    6 ar
  11    5    9 1
  12    6   39 1
  13    7    8 2
  14    7   11 1
  15    8    9 1
  16    8   10 1
  17    9   19 1
  18   10   32 1
  19   10   36 1
  20   10   40 1
  21   11   12 1
  22   11   16 1
  23   11   41 1
  24   12   13 1
  25   12   42 1
  26   12   43 1
  27   13   14 1
  28   13   44 1
  29   13   45 1
  30   14   15 1
  31   14   46 1
  32   14   47 1
  33   15   16 1
  34   15   48 1
  35   15   49 1
  36   16   50 1
  37   16   51 1
  38   17   18 1
  39   17   22 2
  40   18   52 1
  41   19   20 1
  42   19   53 1
  43   19   54 1
  44   20   21 am
  45   20   23 2
  46   21   24 1
  47   21   28 1
  48   24   25 1
  49   24   55 1
  50   24   56 1
  51   25   26 1
  52   25   57 1
  53   25   58 1
  54   26   27 1
  55   26   29 1
  56   26   59 1
  57   27   28 1
  58   27   60 1
  59   27   61 1
  60   28   62 1
  61   28   63 1
  62   29   30 1
  63   29   31 1
  64   30   64 1
  65   30   65 1
  66   30   66 1
  67   31   67 1
  68   31   68 1
  69   31   69 1
  70   32   33 1
  71   32   70 1
  72   32   71 1
  73   33   34 1
  74   33   72 1
  75   33   73 1
  76   34   35 1
  77   34   74 1
  78   34   75 1
  79   35   36 1
  80   35   76 1
  81   35   77 1
  82   36   78 1
  83   36   79 1

#	End of record

