#	Name: ASD01180221
#	Creating user name:	WinNT
#	Creation time:	15. 06. 2019 19:07

#	Modifying user name:	WinNT
#	Modification time:	15. 06. 2019 19:07

#	Program:	/corina/corina34_cracker 3.40 0067  02.08.2006

@<TRIPOS>MOLECULE
ASD01180221
  60   63    0    0    0
SMALL
NO_CHARGES


@<TRIPOS>ATOM
   1 C1             0.9307     1.2356     0.3862 C.ar    
   2 C2             0.8052    -0.1375     0.3260 C.ar    
   3 C3             1.9439    -0.9350     0.2278 C.ar    
   4 C4             3.2037    -0.3403     0.1910 C.ar    
   5 C5             3.3173     1.0338     0.2519 C.ar    
   6 C6             2.1837     1.8205     0.3493 C.ar    
   7 C7             1.8154    -2.4114     0.1633 C.ar    
   8 C8             2.9555    -3.2076     0.0651 C.ar    
   9 C9             2.8339    -4.5795     0.0056 C.ar    
  10 C10            1.5755    -5.1691     0.0436 C.ar    
  11 C11            0.4373    -4.3769     0.1415 C.ar    
  12 C12            0.5547    -3.0049     0.2065 C.ar    
  13 N13            1.4546    -6.5581    -0.0172 N.pl3   
  14 C14            0.1353    -7.1844     0.0990 C.3     
  15 C15            0.1625    -8.5392    -0.5605 C.ar    
  16 N16            0.9263    -9.4902    -0.0579 N.ar    
  17 C17            0.9865   -10.6908    -0.5956 C.ar    
  18 C18            0.2343   -10.9989    -1.7297 C.ar    
  19 C19           -0.5861   -10.0099    -2.2863 C.ar    
  20 C20           -0.6182    -8.7668    -1.6798 C.ar    
  21 C21            0.3027   -12.3462    -2.3337 C.2     
  22 N22            1.0964   -13.2894    -1.7889 N.am    
  23 O23           -0.3570   -12.6036    -3.3218 O.2     
  24 C24            2.3142     3.3204     0.4149 C.3     
  25 F25            2.2856     3.8481    -0.8804 F       
  26 F26            1.2527     3.8488     1.1573 F       
  27 F27            3.5255     3.6567     1.0288 F       
  28 C28           -0.2251    -7.3440     1.5773 C.3     
  29 C29           -1.6381    -7.9180     1.6987 C.3     
  30 C30           -1.9477    -8.2044     3.1694 C.3     
  31 C31           -2.6481    -6.9067     1.1525 C.3     
  32 C32            1.1611   -14.5640    -2.3603 C.2     
  33 N33            1.8908   -15.5730    -1.9324 N.2     
  34 N34            1.6331   -16.6362    -2.8134 N.pl3   
  35 N35            0.7886   -16.2064    -3.6879 N.2     
  36 N36            0.4905   -14.9816    -3.4349 N.2     
  37 H37            0.0488     1.8548     0.4578 H       
  38 H38           -0.1735    -0.5931     0.3553 H       
  39 H39            4.0895    -0.9536     0.1154 H       
  40 H40            4.2931     1.4957     0.2238 H       
  41 H41            3.9333    -2.7500     0.0352 H       
  42 H42            3.7169    -5.1967    -0.0708 H       
  43 H43           -0.5394    -4.8369     0.1705 H       
  44 H44           -0.3297    -2.3899     0.2829 H       
  45 H45            2.2441    -7.1089    -0.1363 H       
  46 H46           -0.6092    -6.5568    -0.3908 H       
  47 H47            1.6238   -11.4434    -0.1552 H       
  48 H48           -1.1819   -10.2137    -3.1638 H       
  49 H49           -1.2396    -7.9798    -2.0810 H       
  50 H50            1.6229   -13.0841    -1.0005 H       
  51 H51            0.4842    -8.0211     2.0532 H       
  52 H52           -0.1845    -6.3716     2.0682 H       
  53 H53           -1.7048    -8.8433     1.1265 H       
  54 H54           -1.8811    -7.2791     3.7416 H       
  55 H55           -2.9544    -8.6133     3.2559 H       
  56 H56           -1.2282    -8.9248     3.5585 H       
  57 H57           -2.5093    -5.9483     1.6527 H       
  58 H58           -2.4946    -6.7827     0.0805 H       
  59 H59           -3.6598    -7.2688     1.3352 H       
  60 H60            2.0180   -17.5256    -2.7719 H       
@<TRIPOS>BOND
   1    1    2 ar
   2    1    6 ar
   3    1   37 1
   4    2    3 ar
   5    2   38 1
   6    3    4 ar
   7    3    7 1
   8    4    5 ar
   9    4   39 1
  10    5    6 ar
  11    5   40 1
  12    6   24 1
  13    7    8 ar
  14    7   12 ar
  15    8    9 ar
  16    8   41 1
  17    9   10 ar
  18    9   42 1
  19   10   11 ar
  20   10   13 1
  21   11   12 ar
  22   11   43 1
  23   12   44 1
  24   13   14 1
  25   13   45 1
  26   14   15 1
  27   14   28 1
  28   14   46 1
  29   15   16 ar
  30   15   20 ar
  31   16   17 ar
  32   17   18 ar
  33   17   47 1
  34   18   19 ar
  35   18   21 1
  36   19   20 ar
  37   19   48 1
  38   20   49 1
  39   21   22 am
  40   21   23 2
  41   22   32 1
  42   22   50 1
  43   24   25 1
  44   24   26 1
  45   24   27 1
  46   28   29 1
  47   28   51 1
  48   28   52 1
  49   29   30 1
  50   29   31 1
  51   29   53 1
  52   30   54 1
  53   30   55 1
  54   30   56 1
  55   31   57 1
  56   31   58 1
  57   31   59 1
  58   32   33 2
  59   32   36 1
  60   33   34 1
  61   34   35 1
  62   34   60 1
  63   35   36 2

#	End of record

