#	Name: ASD01881712
#	Creating user name:	WinNT
#	Creation time:	15. 06. 2019 19:43

#	Modifying user name:	WinNT
#	Modification time:	15. 06. 2019 19:43

#	Program:	/corina/corina34_cracker 3.40 0067  02.08.2006

@<TRIPOS>MOLECULE
ASD01881712
  49   52    0    0    0
SMALL
NO_CHARGES


@<TRIPOS>ATOM
   1 C1             0.0021    -0.0041     0.0020 C.1     
   2 C2            -0.0179     1.4678     0.0101 C.3     
   3 C3             1.3959     1.9894    -0.0006 C.2     
   4 N4             0.0175    -1.1399    -0.0042 N.1     
   5 O5             2.3283     1.2139    -0.0137 O.2     
   6 N6             1.6242     3.3177     0.0044 N.am    
   7 C7             2.9969     3.8414    -0.0059 C.3     
   8 C8             3.1619     4.8153     1.1650 C.3     
   9 C9             2.0776     5.8923     1.0841 C.3     
  10 C10            0.6980     5.2386     1.1903 C.3     
  11 C11            0.5050     4.2695     0.0140 C.3     
  12 C12            2.2603     6.8867     2.2325 C.3     
  13 O13            1.3221     7.9553     2.0911 O.3     
  14 N14            1.2328    12.0146     5.7677 N.pl3   
  15 N15            0.1879    12.7380     5.1739 N.2     
  16 N16           -0.2111    12.1237     4.1165 N.2     
  17 C17            0.5036    10.9957     3.9320 C.ar    
  18 C18            1.4363    10.9048     4.9797 C.ar    
  19 C19            0.4706     9.9905     2.9558 C.ar    
  20 C20            1.3515     8.9318     3.0370 C.ar    
  21 C21            2.2703     8.8557     4.0809 C.ar    
  22 C22            2.3131     9.8275     5.0406 C.ar    
  23 C23            1.9670    12.3732     6.9837 C.3     
  24 C24            1.2657    11.7663     8.2006 C.3     
  25 C25            1.9454    11.9289     9.5616 C.3     
  26 C26            0.6846    12.7318     9.2354 C.3     
  27 Br27          -0.7736    10.0854     1.5349 Br      
  28 H28           -0.5451     1.8289    -0.8729 H       
  29 H29           -0.5281     1.8193     0.9069 H       
  30 H30            3.7030     3.0179     0.1014 H       
  31 H31            3.1817     4.3638    -0.9446 H       
  32 H32            3.0664     4.2728     2.1056 H       
  33 H33            4.1447     5.2838     1.1128 H       
  34 H34            2.1582     6.4179     0.1326 H       
  35 H35            0.6257     4.6922     2.1307 H       
  36 H36           -0.0730     6.0084     1.1561 H       
  37 H37            0.4907     4.8262    -0.9230 H       
  38 H38           -0.4336     3.7287     0.1345 H       
  39 H39            2.0926     6.3793     3.1826 H       
  40 H40            3.2737     7.2873     2.2085 H       
  41 H41            2.9540     8.0213     4.1328 H       
  42 H42            3.0291     9.7593     5.8462 H       
  43 H43            2.9845    11.9873     6.9208 H       
  44 H44            1.9955    13.4581     7.0844 H       
  45 H45            0.7232    10.8390     8.0165 H       
  46 H46            1.8498    11.1087    10.2732 H       
  47 H47            2.8922    12.4682     9.5901 H       
  48 H48            0.8018    13.7994     9.0493 H       
  49 H49           -0.2406    12.4399     9.7323 H       
@<TRIPOS>BOND
   1    1    2 1
   2    1    4 3
   3    2    3 1
   4    2   28 1
   5    2   29 1
   6    3    5 2
   7    3    6 am
   8    6    7 1
   9    6   11 1
  10    7    8 1
  11    7   30 1
  12    7   31 1
  13    8    9 1
  14    8   32 1
  15    8   33 1
  16    9   10 1
  17    9   12 1
  18    9   34 1
  19   10   11 1
  20   10   35 1
  21   10   36 1
  22   11   37 1
  23   11   38 1
  24   12   13 1
  25   12   39 1
  26   12   40 1
  27   13   20 1
  28   14   15 1
  29   14   18 1
  30   14   23 1
  31   15   16 2
  32   16   17 1
  33   17   18 ar
  34   17   19 ar
  35   18   22 ar
  36   19   20 ar
  37   19   27 1
  38   20   21 ar
  39   21   22 ar
  40   21   41 1
  41   22   42 1
  42   23   24 1
  43   23   43 1
  44   23   44 1
  45   24   25 1
  46   24   26 1
  47   24   45 1
  48   25   26 1
  49   25   46 1
  50   25   47 1
  51   26   48 1
  52   26   49 1

#	End of record

