#	Name: ASD01917746
#	Creating user name:	WinNT
#	Creation time:	15. 06. 2019 20:09

#	Modifying user name:	WinNT
#	Modification time:	15. 06. 2019 20:09

#	Program:	/corina/corina34_cracker 3.40 0067  02.08.2006

@<TRIPOS>MOLECULE
ASD01917746
  34   36    0    0    0
SMALL
NO_CHARGES


@<TRIPOS>ATOM
   1 C1            -0.0167     1.3807     0.0096 C.2     
   2 C2             0.0021    -0.0041     0.0020 C.2     
   3 C3            -1.2927    -0.8016     0.0052 C.3     
   4 C4            -2.3787     0.0543    -0.6542 C.3     
   5 C5            -2.5220     1.3905     0.0746 C.3     
   6 C6            -1.2097     2.1418     0.0304 C.2     
   7 O7            -1.1810     3.3555     0.0113 O.2     
   8 S8             1.6404     1.9537    -0.0031 S.3     
   9 C9             2.2077     0.3405    -0.0141 C.2     
  10 N10            1.2168    -0.4921    -0.0093 N.2     
  11 C11            3.6613    -0.0569    -0.0282 C.3     
  12 C12            4.1336    -0.1835    -1.4537 C.2     
  13 C13            5.1901     0.5033    -1.8654 C.2     
  14 C14            5.6533     0.3791    -3.2635 C.ar    
  15 C15            6.7650     1.1007    -3.7000 C.ar    
  16 C16            7.1923     0.9804    -5.0063 C.ar    
  17 C17            6.5209     0.1469    -5.8829 C.ar    
  18 C18            5.4177    -0.5708    -5.4566 C.ar    
  19 C19            4.9843    -0.4645    -4.1510 C.ar    
  20 H20           -1.1581    -1.7246    -0.5588 H       
  21 H21           -1.5793    -1.0344     1.0307 H       
  22 H22           -2.1103     0.2382    -1.6946 H       
  23 H23           -3.3286    -0.4790    -0.6192 H       
  24 H24           -3.2972     1.9854    -0.4083 H       
  25 H25           -2.7998     1.2090     1.1129 H       
  26 H26            4.2509     0.7036     0.4837 H       
  27 H27            3.7814    -1.0133     0.4806 H       
  28 H28            3.6114    -0.8338    -2.1399 H       
  29 H29            5.7123     1.1536    -1.1792 H       
  30 H30            7.2897     1.7522    -3.0168 H       
  31 H31            8.0527     1.5383    -5.3454 H       
  32 H32            6.8591     0.0565    -6.9046 H       
  33 H33            4.8976    -1.2195    -6.1459 H       
  34 H34            4.1232    -1.0256    -3.8193 H       
@<TRIPOS>BOND
   1    1    2 2
   2    1    8 1
   3    1    6 1
   4    2    3 1
   5    2   10 1
   6    3    4 1
   7    3   20 1
   8    3   21 1
   9    4    5 1
  10    4   22 1
  11    4   23 1
  12    5    6 1
  13    5   24 1
  14    5   25 1
  15    6    7 2
  16    8    9 1
  17    9   10 2
  18    9   11 1
  19   11   12 1
  20   11   26 1
  21   11   27 1
  22   12   13 2
  23   12   28 1
  24   13   14 1
  25   13   29 1
  26   14   15 ar
  27   14   19 ar
  28   15   16 ar
  29   15   30 1
  30   16   17 ar
  31   16   31 1
  32   17   18 ar
  33   17   32 1
  34   18   19 ar
  35   18   33 1
  36   19   34 1

#	End of record

