#	Name: ASD02560376
#	Creating user name:	WinNT
#	Creation time:	15. 06. 2019 20:25

#	Modifying user name:	WinNT
#	Modification time:	15. 06. 2019 20:25

#	Program:	/corina/corina34_cracker 3.40 0067  02.08.2006

@<TRIPOS>MOLECULE
ASD02560376
  42   44    0    0    0
SMALL
NO_CHARGES


@<TRIPOS>ATOM
   1 C1             0.0444     1.4472     0.6683 C.2     
   2 C2             0.0609     0.0409     0.6775 C.2     
   3 C3             1.2188    -0.6279     0.5073 C.2     
   4 N4             2.3944     0.0496     0.3237 N.pl3   
   5 C5             2.4093     1.4257     0.3100 C.2     
   6 C6             1.2025     2.1354     0.4868 C.2     
   7 C7             3.6806    -0.3733     0.1325 C.2     
   8 C8             4.4581     0.7586     0.0054 C.2     
   9 N9             3.6537     1.8315     0.1183 N.2     
  10 C10            5.9228     0.7882    -0.2161 C.ar    
  11 N11            4.1216    -1.6958     0.0768 N.3     
  12 C12            3.0024    -2.6317     0.2485 C.3     
  13 C13            7.8325     1.6433    -1.3971 C.ar    
  14 C14            6.4667     1.6202    -1.1961 C.ar    
  15 C15            3.5234    -4.0684     0.1767 C.3     
  16 C16            2.3577    -5.0432     0.3556 C.3     
  17 C17            2.8787    -6.4799     0.2838 C.3     
  18 C18            1.7130    -7.4547     0.4626 C.3     
  19 C19            6.7640    -0.0105     0.5574 C.ar    
  20 C20            8.1277     0.0217     0.3468 C.ar    
  21 C21            8.6609     0.8444    -0.6290 C.ar    
  22 Cl22           5.4283     2.6230    -2.1604 Cl      
  23 H23           -0.8864     1.9787     0.8006 H       
  24 H24           -0.8591    -0.5061     0.8220 H       
  25 H25            1.2193    -1.7078     0.5162 H       
  26 H26            1.1991     3.2153     0.4787 H       
  27 H27            4.6151    -1.8764    -0.7846 H       
  28 H28            2.5334    -2.4633     1.2179 H       
  29 H29            2.2697    -2.4709    -0.5424 H       
  30 H30            8.2550     2.2861    -2.1551 H       
  31 H31            3.9924    -4.2369    -0.7927 H       
  32 H32            4.2560    -4.2292     0.9676 H       
  33 H33            1.8887    -4.8748     1.3250 H       
  34 H34            1.6251    -4.8824    -0.4353 H       
  35 H35            3.3477    -6.6484    -0.6857 H       
  36 H36            3.6114    -6.6407     1.0746 H       
  37 H37            0.9804    -7.2939    -0.3283 H       
  38 H38            2.0842    -8.4783     0.4115 H       
  39 H39            1.2441    -7.2863     1.4320 H       
  40 H40            6.3494    -0.6529     1.3201 H       
  41 H41            8.7800    -0.5967     0.9455 H       
  42 H42            9.7287     0.8660    -0.7895 H       
@<TRIPOS>BOND
   1    1    2 1
   2    1    6 2
   3    1   23 1
   4    2    3 2
   5    2   24 1
   6    3    4 1
   7    3   25 1
   8    4    5 1
   9    4    7 1
  10    5    6 1
  11    5    9 2
  12    6   26 1
  13    7    8 2
  14    7   11 1
  15    8    9 1
  16    8   10 1
  17   10   19 ar
  18   10   14 ar
  19   11   12 1
  20   11   27 1
  21   12   15 1
  22   12   28 1
  23   12   29 1
  24   13   14 ar
  25   13   21 ar
  26   13   30 1
  27   14   22 1
  28   15   16 1
  29   15   31 1
  30   15   32 1
  31   16   17 1
  32   16   33 1
  33   16   34 1
  34   17   18 1
  35   17   35 1
  36   17   36 1
  37   18   37 1
  38   18   38 1
  39   18   39 1
  40   19   20 ar
  41   19   40 1
  42   20   21 ar
  43   20   41 1
  44   21   42 1

#	End of record

