#	Name: ASD01830023
#	Creating user name:	WinNT
#	Creation time:	15. 06. 2019 19:36

#	Modifying user name:	WinNT
#	Modification time:	15. 06. 2019 19:36

#	Program:	/corina/corina34_cracker 3.40 0067  02.08.2006

@<TRIPOS>MOLECULE
ASD01830023
  71   79    0    0    0
SMALL
NO_CHARGES


@<TRIPOS>ATOM
   1 N1             0.4729     1.8815    -0.4235 N.am    
   2 C2             0.5990     0.5566    -0.6402 C.2     
   3 C3            -0.5655    -0.3631    -0.4069 C.3     
   4 C4            -1.6086     0.1695     0.5736 C.3     
   5 C5            -1.3536     1.6042     0.9538 C.3     
   6 C6            -0.9039     2.4358    -0.2353 C.3     
   7 C7            -2.3650     2.2944     1.8215 C.3     
   8 C8            -1.6922     3.5628     2.3772 C.3     
   9 C9            -1.4494     4.4997     1.2126 C.3     
  10 C10           -0.7058     3.9115     0.0348 C.3     
  11 C11            1.3973     2.8703    -0.1880 C.ar    
  12 C12            0.7852     4.0922     0.1151 C.ar    
  13 C13            1.5150     5.2263     0.4160 C.ar    
  14 C14            2.8997     5.1154     0.3929 C.ar    
  15 C15            3.5170     3.9214     0.0806 C.ar    
  16 C16            2.7945     2.7783    -0.2149 C.ar    
  17 O17            1.6569     0.1056    -1.0255 O.2     
  18 N18           -2.7097     5.0568     0.7059 N.4     
  19 C19           -3.5646     2.7104     1.0126 C.2     
  20 C20           -3.7777     4.0933     0.5152 C.3     
  21 C21           -1.1953     4.7556    -1.1719 C.3     
  22 O22           -2.9072     0.0082    -0.0073 O.3     
  23 C23           -4.3797     1.7553     0.6276 C.2     
  24 C24           -4.0028     0.3179     0.8589 C.3     
  25 H25           -0.4658     1.5558     1.5843 H       
  26 H26           -2.6630     1.6399     2.6406 H       
  27 H27           -1.5700    -0.4374     1.4781 H       
  28 H28           -1.5338     2.2590    -1.1071 H       
  29 H29           -0.8611     5.3389     1.5839 H       
  30 C30           -2.3844     5.5787    -0.6515 C.3     
  31 C31           -3.1650     6.1443     1.5823 C.3     
  32 C32           -4.3956     6.7832     0.9920 C.ar    
  33 C33           -5.6501     6.3876     1.4199 C.ar    
  34 C34           -6.7805     6.9694     0.8827 C.ar    
  35 C35           -6.6563     7.9570    -0.0924 C.ar    
  36 C36           -5.3901     8.3517    -0.5197 C.ar    
  37 C37           -4.2664     7.7671     0.0284 C.ar    
  38 C38           -7.8681     8.5858    -0.6739 C.ar    
  39 C39           -7.7439     9.5734    -1.6490 C.ar    
  40 C40           -8.8743    10.1550    -2.1865 C.ar    
  41 C41          -10.1287     9.7594    -1.7586 C.ar    
  42 C42          -10.2579     8.7798    -0.7906 C.ar    
  43 C43           -9.1343     8.1868    -0.2511 C.ar    
  44 H44           -1.0543    -0.5505    -1.3630 H       
  45 H45           -0.1858    -1.3111    -0.0259 H       
  46 H46           -2.3477     4.0403     3.1055 H       
  47 H47           -0.7435     3.3028     2.8467 H       
  48 H48            1.0293     6.1599     0.6588 H       
  49 H49            3.5043     5.9801     0.6232 H       
  50 H50            4.5960     3.8774     0.0667 H       
  51 H51            3.2899     1.8499    -0.4580 H       
  52 H52           -4.6708     4.4870     1.0005 H       
  53 H53           -3.9846     4.0339    -0.5533 H       
  54 H54           -0.4005     5.4181    -1.5146 H       
  55 H55           -1.5166     4.1017    -1.9827 H       
  56 H56           -5.3153     2.0008     0.1473 H       
  57 H57           -4.8501    -0.3276     0.6278 H       
  58 H58           -3.7033     0.1774     1.8975 H       
  59 H59           -3.2415     5.4547    -1.3135 H       
  60 H60           -2.1101     6.6318    -0.5899 H       
  61 H61           -3.4014     5.7422     2.5674 H       
  62 H62           -2.3765     6.8911     1.6743 H       
  63 H63           -5.7452     5.6218     2.1754 H       
  64 H64           -7.7595     6.6595     1.2172 H       
  65 H65           -5.2882     9.1167    -1.2751 H       
  66 H66           -3.2845     8.0723    -0.3020 H       
  67 H67           -6.7648     9.8835    -1.9833 H       
  68 H68           -8.7792    10.9205    -2.9423 H       
  69 H69          -11.0106    10.2173    -2.1816 H       
  70 H70          -11.2397     8.4749    -0.4599 H       
  71 H71           -9.2363     7.4218     0.5044 H       
@<TRIPOS>BOND
   1    1    2 am
   2    1   11 1
   3    1    6 1
   4    2    3 1
   5    2   17 2
   6    3    4 1
   7    3   44 1
   8    3   45 1
   9    4    5 1
  10    4   22 1
  11    4   27 1
  12    5    6 1
  13    5   25 1
  14    5    7 1
  15    6   10 1
  16    6   28 1
  17    7    8 1
  18    7   19 1
  19    7   26 1
  20    8    9 1
  21    8   46 1
  22    8   47 1
  23    9   10 1
  24    9   18 1
  25    9   29 1
  26   10   21 1
  27   10   12 1
  28   11   12 ar
  29   11   16 ar
  30   12   13 ar
  31   13   14 ar
  32   13   48 1
  33   14   15 ar
  34   14   49 1
  35   15   16 ar
  36   15   50 1
  37   16   51 1
  38   18   20 1
  39   18   30 1
  40   18   31 1
  41   19   23 2
  42   19   20 1
  43   20   52 1
  44   20   53 1
  45   21   30 1
  46   21   54 1
  47   21   55 1
  48   22   24 1
  49   23   24 1
  50   23   56 1
  51   24   57 1
  52   24   58 1
  53   30   59 1
  54   30   60 1
  55   31   32 1
  56   31   61 1
  57   31   62 1
  58   32   33 ar
  59   32   37 ar
  60   33   34 ar
  61   33   63 1
  62   34   35 ar
  63   34   64 1
  64   35   36 ar
  65   35   38 1
  66   36   37 ar
  67   36   65 1
  68   37   66 1
  69   38   39 ar
  70   38   43 ar
  71   39   40 ar
  72   39   67 1
  73   40   41 ar
  74   40   68 1
  75   41   42 ar
  76   41   69 1
  77   42   43 ar
  78   42   70 1
  79   43   71 1

#	End of record

