#	Name: ASD01917212
#	Creating user name:	WinNT
#	Creation time:	15. 06. 2019 20:08

#	Modifying user name:	WinNT
#	Modification time:	15. 06. 2019 20:08

#	Program:	/corina/corina34_cracker 3.40 0067  02.08.2006

@<TRIPOS>MOLECULE
ASD01917212
  47   51    0    0    0
SMALL
NO_CHARGES


@<TRIPOS>ATOM
   1 C1            -0.0601     1.4483     0.1024 C.2     
   2 C2            -0.0187    -0.0232     0.1043 C.2     
   3 N3             1.0942     2.1901    -0.0136 N.pl3   
   4 N4             1.2088    -0.5895     0.1921 N.am    
   5 C5             2.3942     0.1948     0.5204 C.3     
   6 C6             2.4058     1.5587    -0.1696 C.3     
   7 N7             0.7400     3.5321     0.0367 N.2     
   8 C8            -0.5684     3.6175     0.1613 C.2     
   9 C9            -1.1023     2.3223     0.2066 C.2     
  10 O10           -1.0309    -0.6937     0.0315 O.2     
  11 C11            1.3426    -1.9570    -0.0367 C.ar    
  12 C12            1.5946    -2.4188    -1.3240 C.ar    
  13 C13            1.7257    -3.7794    -1.5371 C.ar    
  14 C14            1.5998    -4.6352    -0.4510 C.ar    
  15 C15            1.3494    -4.1075     0.8000 C.ar    
  16 N16            1.2341    -2.8047     0.9741 N.ar    
  17 C17            1.2116    -5.0310     1.9829 C.3     
  18 C18           -0.1640    -5.6496     2.2397 C.3     
  19 C19            0.9747    -6.5152     1.6965 C.3     
  20 O20           -1.2832     4.7720     0.2373 O.3     
  21 C21           -0.5477     5.9957     0.1757 C.3     
  22 C22           -1.4998     7.1596     0.2742 C.ar    
  23 C23           -1.8231     7.6853     1.5112 C.ar    
  24 C24           -2.6965     8.7529     1.6016 C.ar    
  25 C25           -3.2463     9.2951     0.4550 C.ar    
  26 C26           -2.9223     8.7701    -0.7820 C.ar    
  27 C27           -2.0455     7.7052    -0.8727 C.ar    
  28 H28            2.4292     0.3455     1.5993 H       
  29 H29            3.2804    -0.3618     0.2155 H       
  30 H30            2.6233     1.4284    -1.2297 H       
  31 H31            3.1698     2.1897     0.2844 H       
  32 H32           -2.1463     2.0639     0.3049 H       
  33 H33            1.6864    -1.7246    -2.1463 H       
  34 H34            1.9212    -4.1672    -2.5260 H       
  35 H35            1.6963    -5.7027    -0.5835 H       
  36 H36            1.8191    -4.7764     2.8514 H       
  37 H37           -0.4614    -5.8022     3.2772 H       
  38 H38           -0.9694    -5.3885     1.5532 H       
  39 H39            0.9184    -6.8236     0.6526 H       
  40 H40            1.4264    -7.2373     2.3767 H       
  41 H41            0.1615     6.0353     1.0025 H       
  42 H42           -0.0071     6.0475    -0.7694 H       
  43 H43           -1.3936     7.2616     2.4070 H       
  44 H44           -2.9497     9.1631     2.5680 H       
  45 H45           -3.9293    10.1288     0.5257 H       
  46 H46           -3.3521     9.1935    -1.6778 H       
  47 H47           -1.7895     7.2973    -1.8394 H       
@<TRIPOS>BOND
   1    1    2 1
   2    1    3 1
   3    1    9 2
   4    2    4 am
   5    2   10 2
   6    3    6 1
   7    3    7 1
   8    4    5 1
   9    4   11 1
  10    5    6 1
  11    5   28 1
  12    5   29 1
  13    6   30 1
  14    6   31 1
  15    7    8 2
  16    8    9 1
  17    8   20 1
  18    9   32 1
  19   11   12 ar
  20   11   16 ar
  21   12   13 ar
  22   12   33 1
  23   13   14 ar
  24   13   34 1
  25   14   15 ar
  26   14   35 1
  27   15   16 ar
  28   15   17 1
  29   17   18 1
  30   17   19 1
  31   17   36 1
  32   18   19 1
  33   18   37 1
  34   18   38 1
  35   19   39 1
  36   19   40 1
  37   20   21 1
  38   21   22 1
  39   21   41 1
  40   21   42 1
  41   22   23 ar
  42   22   27 ar
  43   23   24 ar
  44   23   43 1
  45   24   25 ar
  46   24   44 1
  47   25   26 ar
  48   25   45 1
  49   26   27 ar
  50   26   46 1
  51   27   47 1

#	End of record

