#	Name: ASD01410383
#	Creating user name:	WinNT
#	Creation time:	15. 06. 2019 19:17

#	Modifying user name:	WinNT
#	Modification time:	15. 06. 2019 19:17

#	Program:	/corina/corina34_cracker 3.40 0067  02.08.2006

@<TRIPOS>MOLECULE
ASD01410383
  23   24    0    0    0
SMALL
NO_CHARGES


@<TRIPOS>ATOM
   1 S1             0.0599     1.7565    -0.6156 S.3     
   2 C2             0.1448     0.0033    -0.8602 C.2     
   3 N3             1.4238    -0.3515    -0.6928 N.am    
   4 C4             2.3239     0.5728    -0.4014 C.2     
   5 C5             1.7953     1.9383    -0.2904 C.2     
   6 O6             3.5011     0.3113    -0.2374 O.2     
   7 S7            -1.1609    -1.0376    -1.2380 S.2     
   8 C8             2.4764     3.0764    -0.0051 C.2     
   9 C9             1.8036     4.3790    -0.1020 C.ar    
  10 C10            2.3168     5.4880     0.5809 C.ar    
  11 C11            1.6807     6.7064     0.4855 C.ar    
  12 C12            0.5345     6.8356    -0.2844 C.ar    
  13 C13            0.0206     5.7412    -0.9637 C.ar    
  14 C14            0.6499     4.5182    -0.8823 C.ar    
  15 N15            1.7974    -1.6591    -0.8214 N.3     
  16 F16           -0.0846     8.0332    -0.3728 F       
  17 H17            3.5130     3.0249     0.2933 H       
  18 H18            3.2089     5.3886     1.1814 H       
  19 H19            2.0755     7.5629     1.0119 H       
  20 H20           -0.8724     5.8488    -1.5615 H       
  21 H21            0.2513     3.6678    -1.4157 H       
  22 H22            1.0042    -2.2416    -1.0440 H       
  23 H23            2.5258    -1.7608    -1.5122 H       
@<TRIPOS>BOND
   1    1    2 1
   2    1    5 1
   3    2    3 am
   4    2    7 2
   5    3    4 am
   6    3   15 1
   7    4    5 1
   8    4    6 2
   9    5    8 2
  10    8    9 1
  11    8   17 1
  12    9   10 ar
  13    9   14 ar
  14   10   11 ar
  15   10   18 1
  16   11   12 ar
  17   11   19 1
  18   12   13 ar
  19   12   16 1
  20   13   14 ar
  21   13   20 1
  22   14   21 1
  23   15   22 1
  24   15   23 1

#	End of record

