#	Name: ASD01814103
#	Creating user name:	WinNT
#	Creation time:	15. 06. 2019 19:31

#	Modifying user name:	WinNT
#	Modification time:	15. 06. 2019 19:31

#	Program:	/corina/corina34_cracker 3.40 0067  02.08.2006

@<TRIPOS>MOLECULE
ASD01814103
  53   57    0    0    0
SMALL
NO_CHARGES


@<TRIPOS>ATOM
   1 C1             0.1040     1.4768     0.3861 C.ar    
   2 C2             0.0848     0.0905     0.3779 C.ar    
   3 C3             1.2533    -0.6303     0.2378 C.ar    
   4 C4             2.4704     0.0350     0.1021 C.ar    
   5 C5             2.4882     1.4402     0.1102 C.ar    
   6 C6             1.2977     2.1573     0.2533 C.ar    
   7 N7             3.6447    -0.6745    -0.0376 N.pl3   
   8 C8             4.8383    -0.0824    -0.1701 C.2     
   9 C9             4.9816     1.2904    -0.1762 C.2     
  10 C10            3.7817     2.1314    -0.0341 C.2     
  11 O11            3.8551     3.3478    -0.0340 O.2     
  12 C12            6.3096     1.9023    -0.3229 C.2     
  13 O13            6.4366     3.2444    -0.3274 O.3     
  14 O14            7.2937     1.1982    -0.4403 O.2     
  15 C15            3.5837    -2.1382    -0.0406 C.3     
  16 C16            3.4403    -2.6321    -1.4571 C.ar    
  17 C17            4.5589    -2.7763    -2.2538 C.ar    
  18 C18            4.4259    -3.2316    -3.5592 C.ar    
  19 C19            3.1677    -3.5402    -4.0590 C.ar    
  20 C20            2.0527    -3.3937    -3.2569 C.ar    
  21 C21            2.1890    -2.9457    -1.9560 C.ar    
  22 F22            1.2174    -1.9808     0.2326 F       
  23 F23            1.3145     3.5082     0.2606 F       
  24 N24            5.5583    -3.3785    -4.3699 N.pl3   
  25 C25            5.8639    -4.5134    -5.0975 C.ar    
  26 C26            7.0686    -4.2735    -5.7758 C.ar    
  27 C27            7.4767    -2.9034    -5.4069 C.2     
  28 C28            6.5033    -2.4266    -4.5548 C.2     
  29 C29            5.2280    -5.7411    -5.2514 C.ar    
  30 C30            5.7826    -6.7061    -6.0637 C.ar    
  31 C31            6.9736    -6.4668    -6.7334 C.ar    
  32 C32            7.6182    -5.2569    -6.5935 C.ar    
  33 C33            8.6346    -2.2141    -5.8453 C.2     
  34 C34            8.9015    -0.8098    -5.3680 C.3     
  35 O35            9.4116    -2.7549    -6.6054 O.2     
  36 H36           -0.8195     2.0267     0.4925 H       
  37 H37           -0.8550    -0.4311     0.4826 H       
  38 H38            5.7183    -0.6996    -0.2753 H       
  39 H39            7.3302     3.6005    -0.4265 H       
  40 H40            4.4987    -2.5409     0.3937 H       
  41 H41            2.7269    -2.4673     0.5474 H       
  42 H42            5.5361    -2.5351    -1.8624 H       
  43 H43            3.0610    -3.8940    -5.0737 H       
  44 H44            1.0738    -3.6336    -3.6450 H       
  45 H45            1.3157    -2.8323    -1.3308 H       
  46 H46            6.4990    -1.4475    -4.0992 H       
  47 H47            4.3005    -5.9378    -4.7343 H       
  48 H48            5.2855    -7.6578    -6.1799 H       
  49 H49            7.3976    -7.2320    -7.3668 H       
  50 H50            8.5453    -5.0724    -7.1159 H       
  51 H51            8.1013    -0.4956    -4.6979 H       
  52 H52            9.8527    -0.7814    -4.8365 H       
  53 H53            8.9436    -0.1368    -6.2244 H       
@<TRIPOS>BOND
   1    1    2 ar
   2    1    6 ar
   3    1   36 1
   4    2    3 ar
   5    2   37 1
   6    3    4 ar
   7    3   22 1
   8    4    5 ar
   9    4    7 1
  10    5    6 ar
  11    5   10 1
  12    6   23 1
  13    7    8 1
  14    7   15 1
  15    8    9 2
  16    8   38 1
  17    9   10 1
  18    9   12 1
  19   10   11 2
  20   12   13 1
  21   12   14 2
  22   13   39 1
  23   15   16 1
  24   15   40 1
  25   15   41 1
  26   16   17 ar
  27   16   21 ar
  28   17   18 ar
  29   17   42 1
  30   18   19 ar
  31   18   24 1
  32   19   20 ar
  33   19   43 1
  34   20   21 ar
  35   20   44 1
  36   21   45 1
  37   24   25 1
  38   24   28 1
  39   25   26 ar
  40   25   29 ar
  41   26   27 1
  42   26   32 ar
  43   27   28 2
  44   27   33 1
  45   28   46 1
  46   29   30 ar
  47   29   47 1
  48   30   31 ar
  49   30   48 1
  50   31   32 ar
  51   31   49 1
  52   32   50 1
  53   33   34 1
  54   33   35 2
  55   34   51 1
  56   34   52 1
  57   34   53 1

#	End of record

