#	Name: ASD01028826
#	Creating user name:	WinNT
#	Creation time:	15. 06. 2019 18:58

#	Modifying user name:	WinNT
#	Modification time:	15. 06. 2019 18:58

#	Program:	/corina/corina34_cracker 3.40 0067  02.08.2006

@<TRIPOS>MOLECULE
ASD01028826
  44   48    0    0    0
SMALL
NO_CHARGES


@<TRIPOS>ATOM
   1 N1            -0.0157     1.3060     0.0092 N.ar    
   2 C2             0.0021    -0.0041     0.0020 C.ar    
   3 C3             1.2021    -0.7221    -0.0133 C.ar    
   4 C4             2.3969    -0.0518    -0.0211 C.ar    
   5 C5             2.3684     1.3549    -0.0132 C.ar    
   6 C6             3.5529     2.1090    -0.0204 C.ar    
   7 C7             3.4849     3.4690    -0.0125 C.ar    
   8 C8             2.2549     4.1229     0.0031 C.ar    
   9 C9             1.0873     3.4233     0.0109 C.ar    
  10 C10            1.1159     2.0180     0.0022 C.ar    
  11 C11            4.7568     4.2772    -0.0202 C.3     
  12 C12            5.4051     5.4587    -3.4095 C.2     
  13 C13            5.2069     6.4260    -4.4134 C.2     
  14 C14            4.4197     7.5017    -4.1509 C.2     
  15 C15            3.8111     7.6415    -2.8837 C.2     
  16 N16            3.9958     6.7373    -1.9452 N.2     
  17 N17            4.7996     5.6212    -2.1861 N.pl3   
  18 N18            5.9433     3.8028    -2.1844 N.2     
  19 N19            6.0888     4.3276    -3.3509 N.2     
  20 C20            5.1673     4.5542    -1.4435 C.2     
  21 S21            2.5632    10.1535    -3.7040 S.3     
  22 N22            1.5838    10.9805    -2.5920 N.2     
  23 C23            1.5686    10.2882    -1.4915 C.2     
  24 C24            2.2872     9.1192    -1.4438 C.2     
  25 C25            2.9570     8.8168    -2.6086 C.2     
  26 C26            0.7809    10.7582    -0.2958 C.3     
  27 O27            1.1831    -2.0810    -0.0200 O.3     
  28 C28           -0.0990    -2.7119    -0.0107 C.3     
  29 H29           -0.9337    -0.5432     0.0084 H       
  30 H30            3.3343    -0.5880    -0.0325 H       
  31 H31            4.5124     1.6133    -0.0318 H       
  32 H32            2.2273     5.2025     0.0094 H       
  33 H33            0.1424     3.9461     0.0237 H       
  34 H34            4.5911     5.2205     0.5002 H       
  35 H35            5.5456     3.7182     0.4832 H       
  36 H36            5.6752     6.3144    -5.3801 H       
  37 H37            4.2592     8.2511    -4.9118 H       
  38 H38            2.3241     8.4899    -0.5668 H       
  39 H39           -0.2299    10.3532    -0.3446 H       
  40 H40            1.2665    10.4141     0.6173 H       
  41 H41            0.7363    11.8473    -0.2954 H       
  42 H42           -0.6432    -2.4158     0.8861 H       
  43 H43           -0.6605    -2.4068    -0.8937 H       
  44 H44            0.0286    -3.7944    -0.0174 H       
@<TRIPOS>BOND
   1    1    2 ar
   2    1   10 ar
   3    2    3 ar
   4    2   29 1
   5    3    4 ar
   6    3   27 1
   7    4    5 ar
   8    4   30 1
   9    5    6 ar
  10    5   10 ar
  11    6    7 ar
  12    6   31 1
  13    7    8 ar
  14    7   11 1
  15    8    9 ar
  16    8   32 1
  17    9   10 ar
  18    9   33 1
  19   11   20 1
  20   11   34 1
  21   11   35 1
  22   12   13 1
  23   12   17 1
  24   12   19 2
  25   13   14 2
  26   13   36 1
  27   14   15 1
  28   14   37 1
  29   15   16 2
  30   15   25 1
  31   16   17 1
  32   17   20 1
  33   18   19 1
  34   18   20 2
  35   21   22 1
  36   21   25 1
  37   22   23 2
  38   23   24 1
  39   23   26 1
  40   24   25 2
  41   24   38 1
  42   26   39 1
  43   26   40 1
  44   26   41 1
  45   27   28 1
  46   28   42 1
  47   28   43 1
  48   28   44 1

#	End of record

