#	Name: ASD00170135
#	Creating user name:	WinNT
#	Creation time:	15. 06. 2019 18:31

#	Modifying user name:	WinNT
#	Modification time:	15. 06. 2019 18:31

#	Program:	/corina/corina34_cracker 3.40 0067  02.08.2006

@<TRIPOS>MOLECULE
ASD00170135
  43   46    0    0    0
SMALL
NO_CHARGES


@<TRIPOS>ATOM
   1 C1            -0.0130     1.4920     0.0353 C.2     
   2 C2             0.0064    -0.0036     0.0200 C.ar    
   3 C3             1.3231    -0.4526     0.0131 C.ar    
   4 C4             2.2006     0.7730     0.0241 C.3     
   5 C5             1.2527     1.9524     0.0378 C.2     
   6 S6             1.2288     3.7152     0.0554 S.3     
   7 C7            -0.5301     3.6928     0.0581 C.2     
   8 N8            -0.9446     2.4712     0.0421 N.2     
   9 C9            -1.0416    -0.9269     0.0131 C.ar    
  10 C10           -0.7675    -2.2764    -0.0005 C.ar    
  11 C11            0.5543    -2.7230    -0.0074 C.ar    
  12 C12            1.6011    -1.7996    -0.0012 C.ar    
  13 N13           -1.3442     4.8136     0.0706 N.pl3   
  14 C14            0.8465    -4.1761    -0.0213 C.ar    
  15 C15            0.3152    -5.0072     0.9692 C.ar    
  16 C16            0.5925    -6.3671     0.9499 C.ar    
  17 C17            1.3965    -6.8972    -0.0529 C.ar    
  18 C18            1.9233    -6.0698    -1.0350 C.ar    
  19 C19            1.6474    -4.7183    -1.0257 C.ar    
  20 O20            1.6678    -8.2295    -0.0713 O.3     
  21 C21            2.5005    -8.7074    -1.1296 C.3     
  22 O22            0.0782    -7.1808     1.9120 O.3     
  23 C23           -1.2429    -7.6824     1.6993 C.3     
  24 O24           -0.4702    -4.4852     1.9484 O.3     
  25 C25            0.1703    -4.1377     3.1776 C.3     
  26 H26            2.8251     0.7812     0.9174 H       
  27 H27            2.8220     0.7995    -0.8711 H       
  28 H28           -2.0654    -0.5830     0.0188 H       
  29 H29           -1.5775    -2.9906    -0.0055 H       
  30 H30            2.6255    -2.1416    -0.0063 H       
  31 H31           -0.9496     5.6996     0.0787 H       
  32 H32           -2.3089     4.7123     0.0712 H       
  33 H33            2.5476    -6.4863    -1.8117 H       
  34 H34            2.0591    -4.0783    -1.7920 H       
  35 H35            2.0295    -8.4912    -2.0885 H       
  36 H36            3.4701    -8.2117    -1.0811 H       
  37 H37            2.6373    -9.7839    -1.0265 H       
  38 H38           -1.9250    -6.8492     1.5299 H       
  39 H39           -1.2468    -8.3379     0.8284 H       
  40 H40           -1.5646    -8.2426     2.5772 H       
  41 H41            0.8763    -3.3258     3.0025 H       
  42 H42           -0.5800    -3.8172     3.9003 H       
  43 H43            0.7033    -5.0049     3.5674 H       
@<TRIPOS>BOND
   1    1    2 1
   2    1    5 2
   3    1    8 1
   4    2    3 ar
   5    2    9 ar
   6    3    4 1
   7    3   12 ar
   8    4    5 1
   9    4   26 1
  10    4   27 1
  11    5    6 1
  12    6    7 1
  13    7    8 2
  14    7   13 1
  15    9   10 ar
  16    9   28 1
  17   10   11 ar
  18   10   29 1
  19   11   12 ar
  20   11   14 1
  21   12   30 1
  22   13   31 1
  23   13   32 1
  24   14   15 ar
  25   14   19 ar
  26   15   16 ar
  27   15   24 1
  28   16   17 ar
  29   16   22 1
  30   17   18 ar
  31   17   20 1
  32   18   19 ar
  33   18   33 1
  34   19   34 1
  35   20   21 1
  36   21   35 1
  37   21   36 1
  38   21   37 1
  39   22   23 1
  40   23   38 1
  41   23   39 1
  42   23   40 1
  43   24   25 1
  44   25   41 1
  45   25   42 1
  46   25   43 1

#	End of record

