#	Name: ASD01914009
#	Creating user name:	WinNT
#	Creation time:	15. 06. 2019 20:02

#	Modifying user name:	WinNT
#	Modification time:	15. 06. 2019 20:02

#	Program:	/corina/corina34_cracker 3.40 0067  02.08.2006

@<TRIPOS>MOLECULE
ASD01914009
  51   53    0    0    0
SMALL
NO_CHARGES


@<TRIPOS>ATOM
   1 C1            -0.0167     1.3804     0.0096 C.ar    
   2 C2             0.0021    -0.0041     0.0020 C.ar    
   3 C3            -1.1867    -0.7138     0.0091 C.ar    
   4 C4            -2.4155     1.3466     0.0439 C.ar    
   5 C5            -1.2239     2.0564     0.0305 C.ar    
   6 O6            -3.6017     2.0093     0.0640 O.3     
   7 C7            -4.7890     1.2142     0.0769 C.3     
   8 C8            -5.9968     2.1151     0.0985 C.ar    
   9 N9            -7.2036     1.5823     0.1130 N.ar    
  10 C10           -8.2914     2.3244     0.1321 C.ar    
  11 C11           -8.2005     3.7166     0.1373 C.ar    
  12 C12           -6.9331     4.3117     0.1222 C.ar    
  13 C13           -5.8219     3.4875     0.1085 C.ar    
  14 C14           -9.4218     4.5495     0.1577 C.2     
  15 N15          -10.6360     3.9648     0.1716 N.am    
  16 O16           -9.3308     5.7616     0.1621 O.2     
  17 C17          -11.8463     4.7901     0.1919 C.3     
  18 C18           -2.3954    -0.0402     0.0238 C.ar    
  19 F19           -1.1666    -2.0647     0.0012 F       
  20 C20          -13.0124     4.0001    -0.4055 C.3     
  21 F21            1.1442     2.0714     0.0023 F       
  22 C22          -12.1771     5.1748     1.6353 C.3     
  23 C23          -14.2763     4.8621    -0.3843 C.3     
  24 C24          -15.4425     4.0721    -0.9817 C.3     
  25 C25          -15.1116     3.6875    -2.4252 C.3     
  26 C26          -13.8477     2.8255    -2.4464 C.3     
  27 C27          -12.6815     3.6155    -1.8489 C.3     
  28 H28            0.9449    -0.5308    -0.0098 H       
  29 H29           -1.2381     3.1362     0.0465 H       
  30 H30           -4.8176     0.5895    -0.8158 H       
  31 H31           -4.7923     0.5806     0.9639 H       
  32 H32           -9.2621     1.8512     0.1435 H       
  33 H33           -6.8257     5.3863     0.1257 H       
  34 H34           -4.8285     3.9111     0.0967 H       
  35 H35          -10.7087     2.9975     0.1682 H       
  36 H36          -11.6802     5.6930    -0.3957 H       
  37 H37           -3.3225    -0.5941     0.0286 H       
  38 H38          -13.1785     3.0973     0.1821 H       
  39 H39          -11.3464     5.7376     2.0609 H       
  40 H40          -13.0776     5.7888     1.6504 H       
  41 H41          -12.3432     4.2719     2.2230 H       
  42 H42          -14.5120     5.1361     0.6440 H       
  43 H43          -14.1102     5.7650    -0.9720 H       
  44 H44          -15.6085     3.1692    -0.3941 H       
  45 H45          -16.3429     4.6862    -0.9666 H       
  46 H46          -15.9424     3.1247    -2.8508 H       
  47 H47          -14.9455     4.5904    -3.0128 H       
  48 H48          -14.0138     1.9227    -1.8587 H       
  49 H49          -13.6119     2.5515    -3.4747 H       
  50 H50          -12.5154     4.5184    -2.4366 H       
  51 H51          -11.7811     3.0015    -1.8640 H       
@<TRIPOS>BOND
   1    1    2 ar
   2    1   21 1
   3    1    5 ar
   4    2    3 ar
   5    2   28 1
   6    3   18 ar
   7    3   19 1
   8    4    5 ar
   9    4    6 1
  10    4   18 ar
  11    5   29 1
  12    6    7 1
  13    7    8 1
  14    7   30 1
  15    7   31 1
  16    8    9 ar
  17    8   13 ar
  18    9   10 ar
  19   10   11 ar
  20   10   32 1
  21   11   12 ar
  22   11   14 1
  23   12   13 ar
  24   12   33 1
  25   13   34 1
  26   14   15 am
  27   14   16 2
  28   15   17 1
  29   15   35 1
  30   17   20 1
  31   17   22 1
  32   17   36 1
  33   18   37 1
  34   20   23 1
  35   20   27 1
  36   20   38 1
  37   22   39 1
  38   22   40 1
  39   22   41 1
  40   23   24 1
  41   23   42 1
  42   23   43 1
  43   24   25 1
  44   24   44 1
  45   24   45 1
  46   25   26 1
  47   25   46 1
  48   25   47 1
  49   26   27 1
  50   26   48 1
  51   26   49 1
  52   27   50 1
  53   27   51 1

#	End of record

