#	Name: ASD01028648
#	Creating user name:	WinNT
#	Creation time:	15. 06. 2019 18:57

#	Modifying user name:	WinNT
#	Modification time:	15. 06. 2019 18:57

#	Program:	/corina/corina34_cracker 3.40 0067  02.08.2006

@<TRIPOS>MOLECULE
ASD01028648
  21   21    0    0    0
SMALL
NO_CHARGES


@<TRIPOS>ATOM
   1 C1            -0.0156     1.2993     0.0092 C.2     
   2 N2             0.0021    -0.0041     0.0020 N.2     
   3 N3             1.1578     1.9983     0.0017 N.pl3   
   4 C4             2.4363     1.2831    -0.0143 C.3     
   5 C5             1.1379     3.4631     0.0098 C.3     
   6 C6            -1.1740    -0.7046     0.0095 C.ar    
   7 C7            -1.1598    -2.1051     0.0018 C.ar    
   8 C8            -2.3767    -2.7648     0.0099 C.ar    
   9 C9            -3.5362    -1.9985     0.0250 C.ar    
  10 N10           -3.4588    -0.6814     0.0309 N.ar    
  11 N11           -2.3359    -0.0598     0.0295 N.ar    
  12 Cl12          -5.0886    -2.7755     0.0356 Cl      
  13 H13           -0.9581     1.8266     0.0165 H       
  14 H14            2.7435     1.1113    -1.0459 H       
  15 H15            3.1927     1.8797     0.4955 H       
  16 H16            2.3238     0.3263     0.4955 H       
  17 H17            0.1055     3.8124     0.0215 H       
  18 H18            1.6552     3.8286     0.8969 H       
  19 H19            1.6383     3.8382    -0.8830 H       
  20 H20           -0.2290    -2.6529    -0.0103 H       
  21 H21           -2.4238    -3.8438     0.0042 H       
@<TRIPOS>BOND
   1    1    2 2
   2    1    3 1
   3    1   13 1
   4    2    6 1
   5    3    4 1
   6    3    5 1
   7    4   14 1
   8    4   15 1
   9    4   16 1
  10    5   17 1
  11    5   18 1
  12    5   19 1
  13    6    7 ar
  14    6   11 ar
  15    7    8 ar
  16    7   20 1
  17    8    9 ar
  18    8   21 1
  19    9   10 ar
  20    9   12 1
  21   10   11 ar

#	End of record

