#	Name: ASD09740678
#	Creating user name:	WinNT
#	Creation time:	15. 06. 2019 21:23

#	Modifying user name:	WinNT
#	Modification time:	15. 06. 2019 21:23

#	Program:	/corina/corina34_cracker 3.40 0067  02.08.2006

@<TRIPOS>MOLECULE
ASD09740678
  53   56    0    0    0
SMALL
NO_CHARGES


@<TRIPOS>ATOM
   1 C1             1.1568    -0.7071    -0.0223 C.2     
   2 N2            -0.0127    -0.0372    -0.0207 N.am    
   3 O3             2.2140    -0.0920    -0.0241 O.co2   
   4 O4             1.1609    -1.9302    -0.0170 O.co2   
   5 C5            -1.2766    -0.7695    -0.1320 C.3     
   6 C6            -2.0939    -0.6282     1.1696 C.3     
   7 C7            -2.9845     0.5962     0.8689 C.3     
   8 C8            -3.1231     0.6238    -0.6380 C.ar    
   9 C9            -4.0448     1.2904    -1.4513 C.ar    
  10 C10           -3.9702     1.1608    -2.8380 C.ar    
  11 C11           -2.9859     0.3744    -3.4004 C.ar    
  12 C12           -2.0770    -0.2821    -2.5922 C.ar    
  13 C13           -2.1439    -0.1594    -1.2126 C.ar    
  14 S14           -6.1781     1.6502     0.4641 S.3     
  15 C15           -6.9415     3.2368     0.4114 C.2     
  16 N16           -6.3716     3.9572    -0.5136 N.2     
  17 C17           -5.3975     3.4012    -1.1899 C.2     
  18 C18           -5.0970     2.1308    -0.8423 C.2     
  19 C19           -8.0527     3.6807     1.2782 C.ar    
  20 C20           -8.5734     4.9652     1.1400 C.ar    
  21 C21           -9.6217     5.3785     1.9605 C.ar    
  22 C22          -10.1445     4.4977     2.9194 C.ar    
  23 C23           -9.6181     3.2204     3.0482 C.ar    
  24 C24           -8.5854     2.8096     2.2332 C.ar    
  25 O25          -11.1645     4.8950     3.7208 O.3     
  26 C26          -11.5678     3.9928     4.7529 C.3     
  27 C27          -12.2282     4.7784     5.8876 C.3     
  28 C28          -12.5654     2.9813     4.1850 C.3     
  29 C29          -10.1627     6.6975     1.8255 C.1     
  30 N30          -10.5919     7.7438     1.7185 N.1     
  31 C31           -0.0199     1.4235     0.0924 C.3     
  32 H32           -1.0875    -1.8211    -0.3476 H       
  33 H33           -2.7017    -1.5160     1.3441 H       
  34 H34           -1.4394    -0.4321     2.0189 H       
  35 H35           -3.9618     0.4771     1.3365 H       
  36 H36           -2.5043     1.5090     1.2213 H       
  37 H37           -4.6805     1.6739    -3.4693 H       
  38 H38           -2.9254     0.2719    -4.4739 H       
  39 H39           -1.3088    -0.8960    -3.0387 H       
  40 H40           -4.8696     3.9237    -1.9740 H       
  41 H41           -8.1662     5.6384     0.4002 H       
  42 H42          -10.0218     2.5442     3.7872 H       
  43 H43           -8.1832     1.8125     2.3356 H       
  44 H44          -10.6943     3.4655     5.1364 H       
  45 H45          -13.1017     5.3056     5.5041 H       
  46 H46          -12.5359     4.0902     6.6749 H       
  47 H47          -11.5175     5.4990     6.2923 H       
  48 H48          -13.4390     3.5085     3.8015 H       
  49 H49          -12.0950     2.4216     3.3766 H       
  50 H50          -12.8731     2.2931     4.9723 H       
  51 H51            0.1110     1.8650    -0.8955 H       
  52 H52           -0.9706     1.7505     0.5136 H       
  53 H53            0.7944     1.7415     0.7434 H       
@<TRIPOS>BOND
   1    1    2 am
   2    1    3 ar
   3    1    4 ar
   4    2   31 1
   5    2    5 1
   6    5    6 1
   7    5   13 1
   8    5   32 1
   9    6    7 1
  10    6   33 1
  11    6   34 1
  12    7    8 1
  13    7   35 1
  14    7   36 1
  15    8    9 ar
  16    8   13 ar
  17    9   10 ar
  18    9   18 1
  19   10   11 ar
  20   10   37 1
  21   11   12 ar
  22   11   38 1
  23   12   13 ar
  24   12   39 1
  25   14   15 1
  26   14   18 1
  27   15   16 2
  28   15   19 1
  29   16   17 1
  30   17   18 2
  31   17   40 1
  32   19   20 ar
  33   19   24 ar
  34   20   21 ar
  35   20   41 1
  36   21   22 ar
  37   21   29 1
  38   22   23 ar
  39   22   25 1
  40   23   24 ar
  41   23   42 1
  42   24   43 1
  43   25   26 1
  44   26   27 1
  45   26   28 1
  46   26   44 1
  47   27   45 1
  48   27   46 1
  49   27   47 1
  50   28   48 1
  51   28   49 1
  52   28   50 1
  53   29   30 3
  54   31   51 1
  55   31   52 1
  56   31   53 1

#	End of record

