#	Name: ASD00069396
#	Creating user name:	WinNT
#	Creation time:	15. 06. 2019 18:29

#	Modifying user name:	WinNT
#	Modification time:	15. 06. 2019 18:29

#	Program:	/corina/corina34_cracker 3.40 0067  02.08.2006

@<TRIPOS>MOLECULE
ASD00069396
  31   32    0    0    0
SMALL
NO_CHARGES


@<TRIPOS>ATOM
   1 C1            -0.0168     1.3912     0.0097 C.ar    
   2 C2             0.0021    -0.0041     0.0020 C.ar    
   3 N3             1.1731    -0.6338    -0.0125 N.ar    
   4 C4             2.3073     0.0500    -0.0197 C.ar    
   5 N5             2.3207     1.3748    -0.0127 N.ar    
   6 C6             1.1900     2.0673     0.0018 C.ar    
   7 Cl7            1.2237     3.8029     0.0102 Cl      
   8 N8            -1.1823    -0.7230     0.0099 N.3     
   9 C9            -2.0417    -0.3349    -1.1180 C.3     
  10 C10           -1.8915    -0.5558     1.2868 C.3     
  11 C11           -3.1608    -1.4118     1.2752 C.3     
  12 O12           -3.9688    -1.0421     0.1546 O.3     
  13 C13           -3.3094    -1.1931    -1.1055 C.3     
  14 C14           -0.9856    -1.0010     2.4365 C.3     
  15 N15            3.5088    -0.6366    -0.0344 N.pl3   
  16 C16            4.7742     0.1015    -0.0425 C.3     
  17 H17           -0.9523     1.9309     0.0171 H       
  18 H18           -2.3130     0.7166    -1.0239 H       
  19 H19           -1.5058    -0.4908    -2.0543 H       
  20 H20           -2.1605     0.4921     1.4193 H       
  21 H21           -2.8892    -2.4645     1.1966 H       
  22 H22           -3.7192    -1.2472     2.1967 H       
  23 H23           -3.9754    -0.8704    -1.9058 H       
  24 H24           -3.0421    -2.2394    -1.2533 H       
  25 H25           -0.0804    -0.3938     2.4419 H       
  26 H26           -1.5120    -0.8769     3.3829 H       
  27 H27           -0.7189    -2.0496     2.3039 H       
  28 H28            3.5130    -1.6066    -0.0393 H       
  29 H29            4.8209     0.7329    -0.9298 H       
  30 H30            4.8375     0.7239     0.8501 H       
  31 H31            5.6058    -0.6031    -0.0538 H       
@<TRIPOS>BOND
   1    1    2 ar
   2    1    6 ar
   3    1   17 1
   4    2    3 ar
   5    2    8 1
   6    3    4 ar
   7    4    5 ar
   8    4   15 1
   9    5    6 ar
  10    6    7 1
  11    8    9 1
  12    8   10 1
  13    9   13 1
  14    9   18 1
  15    9   19 1
  16   10   11 1
  17   10   14 1
  18   10   20 1
  19   11   12 1
  20   11   21 1
  21   11   22 1
  22   12   13 1
  23   13   23 1
  24   13   24 1
  25   14   25 1
  26   14   26 1
  27   14   27 1
  28   15   16 1
  29   15   28 1
  30   16   29 1
  31   16   30 1
  32   16   31 1

#	End of record

