#	Name: ASD01910765
#	Creating user name:	WinNT
#	Creation time:	15. 06. 2019 19:56

#	Modifying user name:	WinNT
#	Modification time:	15. 06. 2019 19:56

#	Program:	/corina/corina34_cracker 3.40 0067  02.08.2006

@<TRIPOS>MOLECULE
ASD01910765
  48   51    0    0    0
SMALL
NO_CHARGES


@<TRIPOS>ATOM
   1 C1             0.0679     1.6929    -0.3705 C.ar    
   2 N2             0.0134     0.3718    -0.3966 N.ar    
   3 C3             1.1255    -0.3370    -0.3532 C.ar    
   4 C4             2.3577     0.3083    -0.2797 C.ar    
   5 N5             2.4076     1.6339    -0.2538 N.ar    
   6 C6             1.2886     2.3368    -0.2976 C.ar    
   7 N7             3.5318    -0.4344    -0.2333 N.3     
   8 C8             4.7073     0.4434    -0.1586 C.3     
   9 C9             5.9613    -0.4065     0.0728 C.3     
  10 N10            6.0233    -1.4416    -0.9702 N.am    
  11 C11            4.8312    -2.2725    -1.1977 C.3     
  12 C12            3.6217    -1.3492    -1.3791 C.3     
  13 C13            7.1426    -1.6236    -1.6985 C.2     
  14 C14            7.2279    -2.7485    -2.6545 C.ar    
  15 O15            8.0820    -0.8631    -1.5696 O.2     
  16 C16            7.8466    -2.5684    -3.8936 C.ar    
  17 C17            7.9280    -3.6177    -4.7881 C.ar    
  18 C18            7.3993    -4.8510    -4.4653 C.ar    
  19 C19            6.7769    -5.0459    -3.2283 C.ar    
  20 C20            6.6963    -3.9917    -2.3187 C.ar    
  21 C21            6.2282    -6.3258    -2.8944 C.1     
  22 C22            5.7784    -7.3751    -2.6206 C.1     
  23 C23            5.2298    -8.6550    -2.2867 C.ar    
  24 C24            4.6075    -8.8514    -1.0511 C.ar    
  25 C25            4.0810   -10.0867    -0.7366 C.ar    
  26 C26            4.1681   -11.1304    -1.6411 C.ar    
  27 C27            4.7833   -10.9435    -2.8664 C.ar    
  28 C28            5.3089    -9.7120    -3.1973 C.ar    
  29 H29           -0.8439     2.2703    -0.4108 H       
  30 H30            1.0804    -1.4159    -0.3741 H       
  31 H31            1.3285     3.4159    -0.2765 H       
  32 H32            4.8092     0.9951    -1.0932 H       
  33 H33            4.5858     1.1447     0.6669 H       
  34 H34            6.8476     0.2253     0.0148 H       
  35 H35            5.9080    -0.8781     1.0540 H       
  36 H36            4.9703    -2.8744    -2.0957 H       
  37 H37            4.6692    -2.9235    -0.3386 H       
  38 H38            2.7128    -1.9479    -1.4387 H       
  39 H39            3.7387    -0.7725    -2.2966 H       
  40 H40            8.2622    -1.6060    -4.1531 H       
  41 H41            8.4073    -3.4722    -5.7449 H       
  42 H42            7.4660    -5.6671    -5.1696 H       
  43 H43            6.2168    -4.1361    -1.3618 H       
  44 H44            4.5394    -8.0380    -0.3439 H       
  45 H45            3.5998   -10.2400     0.2180 H       
  46 H46            3.7543   -12.0957    -1.3893 H       
  47 H47            4.8483   -11.7627    -3.5671 H       
  48 H48            5.7888    -9.5675    -4.1540 H       
@<TRIPOS>BOND
   1    1    2 ar
   2    1    6 ar
   3    1   29 1
   4    2    3 ar
   5    3    4 ar
   6    3   30 1
   7    4    5 ar
   8    4    7 1
   9    5    6 ar
  10    6   31 1
  11    7    8 1
  12    7   12 1
  13    8    9 1
  14    8   32 1
  15    8   33 1
  16    9   10 1
  17    9   34 1
  18    9   35 1
  19   10   11 1
  20   10   13 am
  21   11   12 1
  22   11   36 1
  23   11   37 1
  24   12   38 1
  25   12   39 1
  26   13   14 1
  27   13   15 2
  28   14   16 ar
  29   14   20 ar
  30   16   17 ar
  31   16   40 1
  32   17   18 ar
  33   17   41 1
  34   18   19 ar
  35   18   42 1
  36   19   20 ar
  37   19   21 1
  38   20   43 1
  39   21   22 3
  40   22   23 1
  41   23   24 ar
  42   23   28 ar
  43   24   25 ar
  44   24   44 1
  45   25   26 ar
  46   25   45 1
  47   26   27 ar
  48   26   46 1
  49   27   28 ar
  50   27   47 1
  51   28   48 1

#	End of record

