#	Name: ASD03330934
#	Creating user name:	WinNT
#	Creation time:	15. 06. 2019 20:38

#	Modifying user name:	WinNT
#	Modification time:	15. 06. 2019 20:38

#	Program:	/corina/corina34_cracker 3.40 0067  02.08.2006

@<TRIPOS>MOLECULE
ASD03330934
  77   80    0    0    0
SMALL
NO_CHARGES


@<TRIPOS>ATOM
   1 N1            -0.4654     0.4159     0.0602 N.pl3   
   2 C2            -0.7398    -0.8920     0.2779 C.2     
   3 C3             0.2779    -1.9962     0.3952 C.3     
   4 N4             1.3502    -1.5699     1.3077 N.3     
   5 C5             2.4127    -0.8684     0.5842 C.3     
   6 C6             1.8399    -0.0704    -0.5839 C.3     
   7 C7             0.8755     0.9966    -0.0596 C.3     
   8 C8            -1.6472     1.0779    -0.0130 C.2     
   9 N9            -2.6193     0.2296     0.1685 N.2     
  10 C10           -2.0929    -1.0092     0.3561 C.2     
  11 C11           -2.8485    -2.2505     0.5984 C.2     
  12 O12           -2.2572    -3.3024     0.7506 O.2     
  13 N13           -4.1949    -2.2205     0.6514 N.am    
  14 C14            1.8893    -2.7128     2.0568 C.3     
  15 C15           -6.3334    -3.3185     0.3197 C.2     
  16 C16           -4.9462    -3.4549     0.8924 C.3     
  17 C17           -5.0388    -3.7098     2.3981 C.3     
  18 C18           -5.6510    -2.4878     3.0856 C.3     
  19 O19           -6.8470    -2.2235     0.2288 O.2     
  20 N20           -7.0034    -4.4132    -0.0914 N.am    
  21 C21           -8.3887    -4.2940    -0.5529 C.3     
  22 C22           -5.9199    -4.9341     2.6548 C.3     
  23 C23           -3.6383    -3.9627     2.9597 C.3     
  24 N24           -3.3233     4.9178    -0.6183 N.am    
  25 C25           -2.7577     4.2716    -1.8104 C.3     
  26 C26           -2.6243     2.7695    -1.5406 C.3     
  27 C27           -1.8094     2.5552    -0.2631 C.3     
  28 C28           -2.5364     3.1960     0.9214 C.3     
  29 C29           -2.6688     4.7029     0.6794 C.3     
  30 C30           -4.4185     5.6975    -0.7143 C.2     
  31 C31           -5.1174     5.8341    -2.0099 C.ar    
  32 C32           -6.5089     5.7428    -2.0687 C.ar    
  33 C33           -7.1550     5.8716    -3.2808 C.ar    
  34 C34           -6.4266     6.0905    -4.4366 C.ar    
  35 C35           -5.0470     6.1820    -4.3853 C.ar    
  36 C36           -4.3890     6.0607    -3.1788 C.ar    
  37 O37           -4.8315     6.2883     0.2644 O.2     
  38 H38           -0.2010    -2.8925     0.7894 H       
  39 H39            0.6990    -2.2093    -0.5874 H       
  40 H40            2.9227    -0.1887     1.2668 H       
  41 H41            3.1286    -1.5970     0.2037 H       
  42 H42            2.6530     0.4115    -1.1268 H       
  43 H43            1.3060    -0.7430    -1.2551 H       
  44 H44            0.8482     1.8360    -0.7544 H       
  45 H45            1.2113     1.3425     0.9180 H       
  46 H46           -4.6664    -1.3815     0.5301 H       
  47 H47            2.2948    -3.4457     1.3593 H       
  48 H48            2.6803    -2.3696     2.7237 H       
  49 H49            1.0930    -3.1710     2.6433 H       
  50 H50           -4.4358    -4.2903     0.4131 H       
  51 H51           -6.6488    -2.3076     2.6856 H       
  52 H52           -5.7170    -2.6694     4.1584 H       
  53 H53           -5.0234    -1.6156     2.9028 H       
  54 H54           -6.5684    -5.2802    -0.0818 H       
  55 H55           -9.0063    -3.8938     0.2511 H       
  56 H56           -8.4294    -3.6227    -1.4108 H       
  57 H57           -8.7611    -5.2766    -0.8425 H       
  58 H58           -5.4560    -5.8150     2.2111 H       
  59 H59           -6.0302    -5.0836     3.7289 H       
  60 H60           -6.9011    -4.7758     2.2074 H       
  61 H61           -3.0106    -3.0905     2.7768 H       
  62 H62           -3.7043    -4.1443     4.0324 H       
  63 H63           -3.2021    -4.8333     2.4699 H       
  64 H64           -3.4190     4.4326    -2.6618 H       
  65 H65           -1.7753     4.6932    -2.0232 H       
  66 H66           -3.6153     2.3326    -1.4176 H       
  67 H67           -2.1176     2.2927    -2.3797 H       
  68 H68           -0.8273     3.0141    -0.3775 H       
  69 H69           -3.5282     2.7551     1.0212 H       
  70 H70           -1.9671     3.0228     1.8346 H       
  71 H71           -1.6792     5.1597     0.6697 H       
  72 H72           -3.2714     5.1485     1.4709 H       
  73 H73           -7.0786     5.5713    -1.1673 H       
  74 H74           -8.2317     5.8012    -3.3277 H       
  75 H75           -6.9371     6.1899    -5.3831 H       
  76 H76           -4.4843     6.3529    -5.2911 H       
  77 H77           -3.3124     6.1368    -3.1394 H       
@<TRIPOS>BOND
   1    1    2 1
   2    1    7 1
   3    1    8 1
   4    2    3 1
   5    2   10 2
   6    3    4 1
   7    3   38 1
   8    3   39 1
   9    4    5 1
  10    4   14 1
  11    5    6 1
  12    5   40 1
  13    5   41 1
  14    6    7 1
  15    6   42 1
  16    6   43 1
  17    7   44 1
  18    7   45 1
  19    8    9 2
  20    8   27 1
  21    9   10 1
  22   10   11 1
  23   11   12 2
  24   11   13 am
  25   13   16 1
  26   13   46 1
  27   14   47 1
  28   14   48 1
  29   14   49 1
  30   15   19 2
  31   15   20 am
  32   15   16 1
  33   16   17 1
  34   16   50 1
  35   17   18 1
  36   17   22 1
  37   17   23 1
  38   18   51 1
  39   18   52 1
  40   18   53 1
  41   20   21 1
  42   20   54 1
  43   21   55 1
  44   21   56 1
  45   21   57 1
  46   22   58 1
  47   22   59 1
  48   22   60 1
  49   23   61 1
  50   23   62 1
  51   23   63 1
  52   24   25 1
  53   24   29 1
  54   24   30 am
  55   25   26 1
  56   25   64 1
  57   25   65 1
  58   26   27 1
  59   26   66 1
  60   26   67 1
  61   27   28 1
  62   27   68 1
  63   28   29 1
  64   28   69 1
  65   28   70 1
  66   29   71 1
  67   29   72 1
  68   30   31 1
  69   30   37 2
  70   31   32 ar
  71   31   36 ar
  72   32   33 ar
  73   32   73 1
  74   33   34 ar
  75   33   74 1
  76   34   35 ar
  77   34   75 1
  78   35   36 ar
  79   35   76 1
  80   36   77 1

#	End of record

