#	Name: ASD02448061
#	Creating user name:	WinNT
#	Creation time:	15. 06. 2019 20:21

#	Modifying user name:	WinNT
#	Modification time:	15. 06. 2019 20:21

#	Program:	/corina/corina34_cracker 3.40 0067  02.08.2006

@<TRIPOS>MOLECULE
ASD02448061
  78   84    0    0    0
SMALL
NO_CHARGES


@<TRIPOS>ATOM
   1 C1            -0.0297    -6.5895     3.1680 C.ar    
   2 C2             0.4432    -5.4574     2.5329 C.ar    
   3 C3             0.3669    -5.3516     1.1500 C.ar    
   4 C4            -0.1844    -6.3840     0.4062 C.ar    
   5 C5            -0.6584    -7.5207     1.0467 C.ar    
   6 C6            -0.5796    -7.6202     2.4302 C.ar    
   7 N7            -1.2147    -8.5626     0.3012 N.am    
   8 C8            -1.3047    -9.9832     0.6629 C.3     
   9 C9            -1.9753   -10.7764    -0.4120 C.2     
  10 N10           -2.3604   -10.0626    -1.4793 N.am    
  11 S11           -1.9358    -8.4773    -1.2008 S.o2    
  12 O12           -2.1565   -11.9724    -0.3254 O.2     
  13 O13           -3.1416    -7.7399    -1.0538 O.2     
  14 O14           -0.9131    -8.1477    -2.1307 O.2     
  15 N15            0.8463    -4.2017     0.5068 N.pl3   
  16 C16            1.7863    -4.1602    -0.4881 C.2     
  17 C17            0.4602    -2.9217     0.7508 C.2     
  18 N18            1.1220    -2.1238    -0.0398 N.2     
  19 C19            1.9488    -2.8522    -0.8173 C.2     
  20 C20            2.8721    -2.3196    -1.8492 C.ar    
  21 C21            2.4133    -1.3993    -2.7911 C.ar    
  22 C22            4.2036    -2.7328    -1.8776 C.ar    
  23 C23            5.0585    -2.2329    -2.8406 C.ar    
  24 C24            4.5964    -1.3240    -3.7751 C.ar    
  25 C25            3.2780    -0.9067    -3.7492 C.ar    
  26 C26           -0.5654    -2.4944     1.7689 C.3     
  27 C27           -1.9084    -2.3525     1.1000 C.ar    
  28 C28           -2.8051    -3.4054     1.1245 C.ar    
  29 C29           -2.2420    -1.1678     0.4686 C.ar    
  30 C30           -3.4707    -1.0322    -0.1452 C.ar    
  31 C31           -4.3758    -2.0915    -0.1281 C.ar    
  32 C32           -4.0366    -3.2807     0.5139 C.ar    
  33 C33           -5.6985    -1.9514    -0.7858 C.ar    
  34 C34           -6.6037    -3.0106    -0.7687 C.ar    
  35 C35           -6.0422    -0.7581    -1.4179 C.ar    
  36 C36           -7.2739    -0.6333    -2.0282 C.ar    
  37 C37           -8.1665    -1.6898    -2.0127 C.ar    
  38 C38           -7.8325    -2.8748    -1.3822 C.ar    
  39 Cl39           0.7589    -0.8743    -2.7601 Cl      
  40 C40           -9.5102    -1.5472    -2.6799 C.3     
  41 C41           -9.6465    -2.5995    -3.7822 C.3     
  42 C42          -11.0108    -2.4547    -4.4595 C.3     
  43 C43          -12.1185    -2.6550    -3.4234 C.3     
  44 C44          -11.9821    -1.6027    -2.3211 C.3     
  45 C45          -10.6179    -1.7475    -1.6437 C.3     
  46 Cl46           4.7857    -3.8727    -0.7048 Cl      
  47 H47            0.0346    -6.6709     4.2430 H       
  48 H48            0.8724    -4.6534     3.1125 H       
  49 H49           -0.2450    -6.3037    -0.6691 H       
  50 H50           -0.9478    -8.5043     2.9294 H       
  51 H51           -0.3002   -10.3754     0.8220 H       
  52 H52           -1.8745   -10.0810     1.5870 H       
  53 H53           -2.8076   -10.4066    -2.2683 H       
  54 H54            2.2994    -5.0037    -0.9258 H       
  55 H55            6.0900    -2.5522    -2.8636 H       
  56 H56            5.2687    -0.9357    -4.5259 H       
  57 H57            2.9229    -0.1968    -4.4816 H       
  58 H58           -0.6296    -3.2447     2.5570 H       
  59 H59           -0.2719    -1.5378     2.2010 H       
  60 H60           -2.5410    -4.3268     1.6221 H       
  61 H61           -1.5398    -0.3474     0.4563 H       
  62 H62           -3.7303    -0.1067    -0.6375 H       
  63 H63           -4.7342    -4.1050     0.5298 H       
  64 H64           -6.3439    -3.9362    -0.2767 H       
  65 H65           -5.3463     0.0677    -1.4300 H       
  66 H66           -7.5413     0.2911    -2.5184 H       
  67 H67           -8.5331    -3.6967    -1.3734 H       
  68 H68           -9.5958    -0.5517    -3.1154 H       
  69 H69           -8.8574    -2.4568    -4.5204 H       
  70 H70           -9.5610    -3.5951    -3.3466 H       
  71 H71          -11.0963    -1.4592    -4.8951 H       
  72 H72          -11.1079    -3.2044    -5.2448 H       
  73 H73          -13.0904    -2.5519    -3.9059 H       
  74 H74          -12.0329    -3.6506    -2.9878 H       
  75 H75          -12.0677    -0.6072    -2.7566 H       
  76 H76          -12.7713    -1.7454    -1.5829 H       
  77 H77          -10.5324    -2.7431    -1.2082 H       
  78 H78          -10.5208    -0.9978    -0.8585 H       
@<TRIPOS>BOND
   1    1    2 ar
   2    1    6 ar
   3    1   47 1
   4    2    3 ar
   5    2   48 1
   6    3    4 ar
   7    3   15 1
   8    4    5 ar
   9    4   49 1
  10    5    6 ar
  11    5    7 1
  12    6   50 1
  13    7    8 1
  14    7   11 am
  15    8    9 1
  16    8   51 1
  17    8   52 1
  18    9   10 am
  19    9   12 2
  20   10   11 am
  21   10   53 1
  22   11   13 2
  23   11   14 2
  24   15   16 1
  25   15   17 1
  26   16   19 2
  27   16   54 1
  28   17   18 2
  29   17   26 1
  30   18   19 1
  31   19   20 1
  32   20   21 ar
  33   20   22 ar
  34   21   39 1
  35   21   25 ar
  36   22   23 ar
  37   22   46 1
  38   23   24 ar
  39   23   55 1
  40   24   25 ar
  41   24   56 1
  42   25   57 1
  43   26   27 1
  44   26   58 1
  45   26   59 1
  46   27   28 ar
  47   27   29 ar
  48   28   32 ar
  49   28   60 1
  50   29   30 ar
  51   29   61 1
  52   30   31 ar
  53   30   62 1
  54   31   32 ar
  55   31   33 1
  56   32   63 1
  57   33   34 ar
  58   33   35 ar
  59   34   38 ar
  60   34   64 1
  61   35   36 ar
  62   35   65 1
  63   36   37 ar
  64   36   66 1
  65   37   38 ar
  66   37   40 1
  67   38   67 1
  68   40   41 1
  69   40   45 1
  70   40   68 1
  71   41   42 1
  72   41   69 1
  73   41   70 1
  74   42   43 1
  75   42   71 1
  76   42   72 1
  77   43   44 1
  78   43   73 1
  79   43   74 1
  80   44   45 1
  81   44   75 1
  82   44   76 1
  83   45   77 1
  84   45   78 1

#	End of record

