#	Name: ASD06590073
#	Creating user name:	WinNT
#	Creation time:	15. 06. 2019 21:06

#	Modifying user name:	WinNT
#	Modification time:	15. 06. 2019 21:06

#	Program:	/corina/corina34_cracker 3.40 0067  02.08.2006

@<TRIPOS>MOLECULE
ASD06590073
 319  319    0    0    0
SMALL
NO_CHARGES


@<TRIPOS>ATOM
   1 C1            -0.3600     7.9398     9.1695 C.2     
   2 O2             0.1669     8.1169     8.0915 O.2     
   3 N3             1.3698     9.3891    10.0619 N.am    
   4 C4             0.1036     8.7207    10.3721 C.3     
   5 C5            -0.9501     9.7683    10.7371 C.3     
   6 C6            -0.4902    10.5453    11.9723 C.3     
   7 O7            -1.1228    10.6715     9.6433 O.3     
   8 C8            -3.4030     6.4951     8.0972 C.2     
   9 O9            -3.9702     7.0737     8.9996 O.2     
  10 N10           -1.3639     7.0488     9.2906 N.am    
  11 C11           -1.9002     6.3833     8.1008 C.3     
  12 C12           -1.4987     4.9070     8.1175 C.3     
  13 C13            0.0019     4.7936     8.0367 C.2     
  14 O14            0.6856     5.7952     8.0175 O.2     
  15 N15            0.5841     3.5792     7.9857 N.am    
  16 C16           -6.1637     4.9286     6.2840 C.2     
  17 O17           -5.4330     4.1114     5.7653 O.2     
  18 N18           -4.1168     5.9521     7.0911 N.am    
  19 C19           -5.5777     6.0608     7.0875 C.3     
  20 C20           -5.9883     7.3957     6.4627 C.3     
  21 C21           -9.4236     4.1277     4.8366 C.2     
  22 O22           -9.8689     5.2268     5.0907 O.2     
  23 N23           -7.4999     4.8242     6.1417 N.am    
  24 C24           -8.0696     3.7236     5.3605 C.3     
  25 C25           -8.2153     2.4881     6.2511 C.3     
  26 C26          -12.2868     2.4279     3.3279 C.2     
  27 O27          -11.8249     1.3295     3.5541 O.2     
  28 N28          -10.1397     3.2676     4.0856 N.am    
  29 C29          -11.4560     3.6604     3.5763 C.3     
  30 C30          -11.2862     4.4334     2.2669 C.3     
  31 C31          -10.5502     5.7463     2.5415 C.3     
  32 C32          -10.3805     6.5193     1.2321 C.3     
  33 N33           -9.6757     7.7765     1.4950 N.pl3   
  34 C34           -9.4074     8.6432     0.4620 C.2     
  35 N35           -8.7803     9.7617     0.6959 N.2     
  36 N36           -9.8005     8.3301    -0.8177 N.pl3   
  37 C37          -15.3946     1.6479     1.5683 C.2     
  38 O38          -15.4577     2.7537     1.0741 O.2     
  39 N39          -13.5431     2.5462     2.8545 N.am    
  40 C40          -14.3507     1.3480     2.6131 C.3     
  41 C41          -15.0373     0.9252     3.9134 C.3     
  42 O42          -15.9677     1.9345     4.3108 O.3     
  43 C43          -18.4519     1.5727     0.6427 C.2     
  44 O44          -18.5494     1.7859     1.8327 O.2     
  45 N45          -16.2580     0.6874     1.1832 N.am    
  46 C46          -17.1990     0.9438     0.0900 C.3     
  47 C47          -17.5520    -0.3759    -0.5990 C.3     
  48 C48          -16.3282    -0.9284    -1.2834 C.2     
  49 O49          -15.3096    -0.2794    -1.3160 O.2     
  50 O50          -16.3699    -2.1413    -1.8567 O.3     
  51 C51          -21.8379     2.2233    -0.5718 C.2     
  52 O52          -21.6614     1.5724    -1.5799 O.2     
  53 N53          -19.4643     1.8984    -0.1853 N.am    
  54 C54          -20.6823     2.5098     0.3521 C.3     
  55 C55          -20.4851     4.0226     0.4681 C.3     
  56 C56          -19.2372     4.3116     1.3048 C.3     
  57 O57          -20.3244     4.5835    -0.8364 O.3     
  58 C58          -25.2440     3.4766    -1.0084 C.2     
  59 O59          -25.0730     4.3793    -0.2167 O.2     
  60 N60          -23.0675     2.6903    -0.2779 N.am    
  61 C61          -24.1909     2.4117    -1.1760 C.3     
  62 C62          -24.7889     1.0451    -0.8361 C.3     
  63 C63          -23.7587    -0.0486    -1.1252 C.3     
  64 C64          -24.3567    -1.4152    -0.7852 C.3     
  65 N65          -23.3702    -2.4624    -1.0621 N.pl3   
  66 C66          -23.6844    -3.7809    -0.8318 C.2     
  67 N67          -22.8068    -4.7126    -1.0782 N.2     
  68 N68          -24.9243    -4.1167    -0.3418 N.pl3   
  69 C69          -28.7423     3.9073    -1.9778 C.2     
  70 O70          -28.8349     2.7609    -2.3627 O.2     
  71 N71          -26.3759     3.4257    -1.7383 N.am    
  72 C72          -27.3996     4.4609    -1.5754 C.3     
  73 C73          -27.0568     5.6610    -2.4604 C.3     
  74 C74          -25.7547     6.2991    -1.9724 C.3     
  75 C75          -25.4171     7.4812    -2.8440 C.2     
  76 O76          -26.1461     7.7834    -3.7649 O.2     
  77 N77          -24.3049     8.2024    -2.6002 N.am    
  78 C78          -32.0476     5.2777    -2.7262 C.2     
  79 O79          -31.6405     6.4199    -2.7045 O.2     
  80 N80          -29.8401     4.6861    -1.9099 N.am    
  81 C81          -31.1454     4.1479    -2.3010 C.3     
  82 C82          -31.7714     3.4146    -1.1131 C.3     
  83 C83          -30.9193     2.1937    -0.7608 C.3     
  84 C84          -31.5360     1.4715     0.4093 C.2     
  85 O85          -32.5565     1.8918     0.9119 O.2     
  86 N86          -30.9533     0.3584     0.8972 N.am    
  87 C87          -35.6226     5.7087    -3.3562 C.2     
  88 O88          -35.8889     4.6087    -2.9203 O.2     
  89 N89          -33.3070     5.0187    -3.1304 N.am    
  90 C90          -34.1841     6.1169    -3.5437 C.3     
  91 C91          -33.9342     6.4421    -5.0177 C.3     
  92 C92          -32.5317     6.9673    -5.1855 C.ar    
  93 C93          -31.4928     6.0915    -5.4414 C.ar    
  94 C94          -30.2061     6.5704    -5.5951 C.ar    
  95 C95          -29.9569     7.9313    -5.4930 C.ar    
  96 O96          -28.6921     8.4049    -5.6443 O.3     
  97 C97          -31.0011     8.8080    -5.2367 C.ar    
  98 C98          -32.2868     8.3247    -5.0889 C.ar    
  99 C99          -38.8849     6.9614    -4.4291 C.2     
 100 O100         -38.3881     7.7771    -5.1766 O.2     
 101 N101         -36.6131     6.5660    -3.6729 N.am    
 102 C102         -38.0115     6.1692    -3.4906 C.3     
 103 C103         -38.4352     6.4430    -2.0462 C.3     
 104 C104         -37.6335     5.5462    -1.1008 C.3     
 105 C105         -38.0572     5.8200     0.3436 C.3     
 106 N106         -37.2895     4.9613     1.2489 N.pl3   
 107 C107         -37.4996     5.0311     2.6058 C.2     
 108 N108         -36.8166     4.2671     3.4112 N.2     
 109 N109         -38.4301     5.9068     3.1131 N.pl3   
 110 C110         -42.4638     7.6128    -4.7899 C.2     
 111 O111         -42.7244     7.0786    -3.7327 O.2     
 112 N112         -40.2180     6.7634    -4.4377 N.am    
 113 C113         -41.0670     7.5335    -5.3500 C.3     
 114 C114         -41.1037     6.8451    -6.7160 C.3     
 115 C115         -39.7070     6.8756    -7.3400 C.3     
 116 C116         -39.7437     6.1873    -8.7060 C.3     
 117 C117         -38.3471     6.2177    -9.3300 C.3     
 118 N118         -38.3822     5.5568   -10.6415 N.3     
 119 C119         -45.7617     8.5700    -6.0431 C.2     
 120 O120         -45.3653     8.6513    -7.1864 O.2     
 121 N121         -43.4234     8.2773    -5.4637 N.am    
 122 C122         -44.7812     8.3544    -4.9192 C.3     
 123 C123         -44.8701     9.5215    -3.9339 C.3     
 124 C124         -43.9667     9.2433    -2.7308 C.3     
 125 C125         -43.9584    10.4624    -1.8064 C.3     
 126 C126         -44.4949     8.0275    -1.9668 C.3     
 127 C127         -48.1271    10.3542    -7.1787 C.2     
 128 O128         -47.4663    11.1469    -6.5503 O.2     
 129 N129         -47.0791     8.6725    -5.7777 N.am    
 130 C130         -48.0323     8.8822    -6.8703 C.3     
 131 C131         -49.4083     8.3586    -6.4541 C.3     
 132 C132         -49.3259     6.8518    -6.2022 C.3     
 133 C133         -50.6559     6.3568    -5.6304 C.3     
 134 C134         -49.0368     6.1295    -7.5197 C.3     
 135 O135         -48.9456    10.7848    -8.1515 O.3     
 136 C136           2.2220     9.7124    11.0547 C.2     
 137 O137           1.9407     9.4500    12.2049 O.2     
 138 C138          18.2009    17.0520    17.5351 C.3     
 139 C139          16.8785    16.3539    17.8590 C.3     
 140 C140          16.1043    16.1017    16.5637 C.3     
 141 C141          14.7819    15.4036    16.8877 C.3     
 142 C142          14.0077    15.1514    15.5924 C.3     
 143 C143          12.6853    14.4534    15.9163 C.3     
 144 C144          11.9110    14.2011    14.6210 C.3     
 145 C145          10.5887    13.5031    14.9450 C.3     
 146 C146           9.8144    13.2508    13.6497 C.3     
 147 C147           8.4920    12.5528    13.9736 C.3     
 148 C148           7.7178    12.3006    12.6783 C.3     
 149 C149           6.3954    11.6025    13.0023 C.3     
 150 C150           5.6212    11.3503    11.7070 C.3     
 151 C151           4.2988    10.6522    12.0309 C.3     
 152 C152           3.5245    10.4000    10.7356 C.3     
 153 H153           1.5948     9.5991     9.1420 H       
 154 H154           0.2475     8.0419    11.2127 H       
 155 H155          -1.8966     9.2722    10.9516 H       
 156 H156           0.3941    11.1322    11.7239 H       
 157 H157          -1.2881    11.2116    12.3003 H       
 158 H158          -0.2489     9.8458    12.7726 H       
 159 H159          -1.4142    10.2468     8.8248 H       
 160 H160          -1.7312     6.8480    10.1656 H       
 161 H161          -1.4983     6.8590     7.2062 H       
 162 H162          -1.8487     4.4457     9.0410 H       
 163 H163          -1.9479     4.3986     7.2644 H       
 164 H164           0.0374     2.7781     8.0011 H       
 165 H165           1.5500     3.5062     7.9337 H       
 166 H166          -3.6631     5.4894     6.3693 H       
 167 H167          -5.9483     6.0096     8.1113 H       
 168 H168          -7.0753     7.4766     6.4601 H       
 169 H169          -5.5644     8.2146     7.0439 H       
 170 H170          -5.6177     7.4469     5.4389 H       
 171 H171          -8.0844     5.4779     6.5565 H       
 172 H172          -7.4103     3.4927     4.5237 H       
 173 H173          -8.6391     1.6692     5.6699 H       
 174 H174          -7.2360     2.1958     6.6300 H       
 175 H175          -8.8745     2.7190     7.0878 H       
 176 H176          -9.7836     2.3885     3.8824 H       
 177 H177         -11.9553     4.2934     4.3098 H       
 178 H178         -10.7092     3.8337     1.5631 H       
 179 H179         -12.2668     4.6486     1.8423 H       
 180 H180         -11.1273     6.3461     3.2453 H       
 181 H181          -9.5696     5.5312     2.9661 H       
 182 H182          -9.8034     5.9196     0.5282 H       
 183 H183         -11.3610     6.7345     0.8074 H       
 184 H184          -9.3983     7.9974     2.3978 H       
 185 H185          -8.5911    10.3732    -0.0329 H       
 186 H186         -10.2672     7.4978    -0.9918 H       
 187 H187          -9.6113     8.9416    -1.5465 H       
 188 H188         -13.9125     3.4246     2.6736 H       
 189 H189         -13.7075     0.5408     2.2627 H       
 190 H190         -15.5662    -0.0148     3.7560 H       
 191 H191         -14.2879     0.7942     4.6940 H       
 192 H192         -16.4409     1.7328     5.1296 H       
 193 H193         -16.2565    -0.1736     1.6299 H       
 194 H194         -16.7413     1.6197    -0.6323 H       
 195 H195         -17.9064    -1.0903     0.1440 H       
 196 H196         -18.3342    -0.2021    -1.3380 H       
 197 H197         -15.5602    -2.4532    -2.2835 H       
 198 H198         -19.3864     1.7279    -1.1370 H       
 199 H199         -20.8932     2.0943     1.3374 H       
 200 H200         -21.3563     4.4667     0.9497 H       
 201 H201         -19.0967     5.3893     1.3875 H       
 202 H202         -19.3598     3.8838     2.2998 H       
 203 H203         -18.3660     3.8675     0.8232 H       
 204 H204         -20.1945     5.5417    -0.8393 H       
 205 H205         -23.2087     3.2109     0.5283 H       
 206 H206         -23.8390     2.4079    -2.2076 H       
 207 H207         -25.0596     1.0193     0.2195 H       
 208 H208         -25.6781     0.8763    -1.4434 H       
 209 H209         -23.4880    -0.0228    -2.1807 H       
 210 H210         -22.8695     0.1202    -0.5178 H       
 211 H211         -24.6274    -1.4410     0.2703 H       
 212 H212         -25.2459    -1.5840    -1.3926 H       
 213 H213         -22.4955    -2.2255    -1.4078 H       
 214 H214         -23.0284    -5.6428    -0.9157 H       
 215 H215         -25.5774    -3.4233    -0.1585 H       
 216 H216         -25.1459    -5.0469    -0.1794 H       
 217 H217         -26.5126     2.7038    -2.3715 H       
 218 H218         -27.4345     4.7766    -0.5327 H       
 219 H219         -26.9346     5.3290    -3.4914 H       
 220 H220         -27.8625     6.3933    -2.4076 H       
 221 H221         -25.8769     6.6311    -0.9414 H       
 222 H222         -24.9491     5.5668    -2.0252 H       
 223 H223         -23.7219     7.9607    -1.8637 H       
 224 H224         -24.0876     8.9633    -3.1613 H       
 225 H225         -29.7661     5.6030    -1.6020 H       
 226 H226         -31.0179     3.4528    -3.1309 H       
 227 H227         -31.8173     4.0855    -0.2552 H       
 228 H228         -32.7787     3.0912    -1.3757 H       
 229 H229         -30.8734     1.5229    -1.6187 H       
 230 H230         -29.9121     2.5172    -0.4982 H       
 231 H231         -30.1371     0.0222     0.4952 H       
 232 H232         -31.3503    -0.1065     1.6503 H       
 233 H233         -33.6326     4.1051    -3.1477 H       
 234 H234         -33.9742     6.9976    -2.9367 H       
 235 H235         -34.0578     5.5388    -5.6151 H       
 236 H236         -34.6470     7.1972    -5.3491 H       
 237 H237         -31.6873     5.0321    -5.5207 H       
 238 H238         -29.3949     5.8858    -5.7943 H       
 239 H239         -28.4637     8.6323    -6.5561 H       
 240 H240         -30.8096     9.8679    -5.1564 H       
 241 H241         -33.1007     9.0072    -4.8937 H       
 242 H242         -36.4001     7.4458    -4.0216 H       
 243 H243         -38.1184     5.1059    -3.7053 H       
 244 H244         -38.2450     7.4886    -1.8037 H       
 245 H245         -39.4985     6.2315    -1.9332 H       
 246 H246         -37.8237     4.5007    -1.3433 H       
 247 H247         -36.5702     5.7577    -1.2138 H       
 248 H248         -37.8669     6.8655     0.5861 H       
 249 H249         -39.1205     5.6085     0.4567 H       
 250 H250         -36.6330     4.3435     0.8909 H       
 251 H251         -36.9648     4.3164     4.3685 H       
 252 H252         -38.9384     6.4754     2.5137 H       
 253 H253         -38.5784     5.9561     4.0705 H       
 254 H254         -40.6153     6.1110    -3.8399 H       
 255 H255         -40.6624     8.5395    -5.4609 H       
 256 H256         -41.4242     5.8106    -6.5930 H       
 257 H257         -41.8042     7.3676    -7.3674 H       
 258 H258         -39.3865     7.9101    -7.4630 H       
 259 H259         -39.0065     6.3532    -6.6886 H       
 260 H260         -40.0642     5.1527    -8.5830 H       
 261 H261         -40.4442     6.7097    -9.3574 H       
 262 H262         -38.0265     7.2523    -9.4530 H       
 263 H263         -37.6465     5.6953    -8.6786 H       
 264 H264         -37.4709     5.5639   -11.0745 H       
 265 H265         -38.7379     4.6159   -10.5628 H       
 266 H266         -43.2149     8.7045    -6.3093 H       
 267 H267         -45.0190     7.4243    -4.4030 H       
 268 H268         -44.5467    10.4384    -4.4267 H       
 269 H269         -45.9003     9.6344    -3.5962 H       
 270 H270         -42.9526     9.0426    -3.0766 H       
 271 H271         -44.9725    10.6631    -1.4606 H       
 272 H272         -43.3148    10.2642    -0.9494 H       
 273 H273         -43.5821    11.3286    -2.3508 H       
 274 H274         -45.5089     8.2281    -1.6210 H       
 275 H275         -44.5008     7.1590    -2.6253 H       
 276 H276         -43.8513     7.8293    -1.1097 H       
 277 H277         -47.3961     8.6075    -4.8633 H       
 278 H278         -47.6925     8.3464    -7.7567 H       
 279 H279         -49.7282     8.8625    -5.5420 H       
 280 H280         -50.1276     8.5553    -7.2492 H       
 281 H281         -48.5256     6.6454    -5.4916 H       
 282 H282         -51.4416     6.4846    -6.3750 H       
 283 H283         -50.5695     5.3017    -5.3707 H       
 284 H284         -50.9041     6.9314    -4.7380 H       
 285 H285         -48.0893     6.4822    -7.9271 H       
 286 H286         -48.9781     5.0560    -7.3402 H       
 287 H287         -49.8371     6.3358    -8.2303 H       
 288 H288         -48.9726    11.7379    -8.3128 H       
 289 H289          18.7937    16.4190    16.8748 H       
 290 H290          17.9986    18.0027    17.0417 H       
 291 H291          18.7525    17.2317    18.4579 H       
 292 H292          17.0809    15.4033    18.3524 H       
 293 H293          16.2857    16.9870    18.5193 H       
 294 H294          15.9020    17.0524    16.0704 H       
 295 H295          16.6971    15.4687    15.9035 H       
 296 H296          14.9842    14.4530    17.3810 H       
 297 H297          14.1891    16.0367    17.5479 H       
 298 H298          13.8053    16.1021    15.0990 H       
 299 H299          14.6005    14.5184    14.9321 H       
 300 H300          12.8876    13.5027    16.4097 H       
 301 H301          12.0925    15.0864    16.5766 H       
 302 H302          11.7087    15.1518    14.1277 H       
 303 H303          12.5038    13.5681    13.9608 H       
 304 H304          10.7910    12.5524    15.4383 H       
 305 H305           9.9958    14.1361    15.6052 H       
 306 H306           9.6121    14.2015    13.1563 H       
 307 H307          10.4072    12.6178    12.9894 H       
 308 H308           8.6944    11.6021    14.4670 H       
 309 H309           7.8992    13.1858    14.6339 H       
 310 H310           7.5155    13.2512    12.1850 H       
 311 H311           8.3106    11.6675    12.0181 H       
 312 H312           6.5977    10.6518    13.4956 H       
 313 H313           5.8026    12.2355    13.6625 H       
 314 H314           5.4188    12.3009    11.2136 H       
 315 H315           6.2140    10.7172    11.0467 H       
 316 H316           4.5011     9.7015    12.5243 H       
 317 H317           3.7060    11.2853    12.6912 H       
 318 H318           4.1174     9.7669    10.0754 H       
 319 H319           3.3222    11.3507    10.2423 H       
@<TRIPOS>BOND
   1    1    2 2
   2    1    4 1
   3    1   10 am
   4    3  136 am
   5    3    4 1
   6    3  153 1
   7    4    5 1
   8    4  154 1
   9    5    6 1
  10    5    7 1
  11    5  155 1
  12    6  156 1
  13    6  157 1
  14    6  158 1
  15    7  159 1
  16    8    9 2
  17    8   11 1
  18    8   18 am
  19   10   11 1
  20   10  160 1
  21   11   12 1
  22   11  161 1
  23   12   13 1
  24   12  162 1
  25   12  163 1
  26   13   14 2
  27   13   15 am
  28   15  164 1
  29   15  165 1
  30   16   17 2
  31   16   19 1
  32   16   23 am
  33   18   19 1
  34   18  166 1
  35   19   20 1
  36   19  167 1
  37   20  168 1
  38   20  169 1
  39   20  170 1
  40   21   22 2
  41   21   24 1
  42   21   28 am
  43   23   24 1
  44   23  171 1
  45   24   25 1
  46   24  172 1
  47   25  173 1
  48   25  174 1
  49   25  175 1
  50   26   27 2
  51   26   29 1
  52   26   39 am
  53   28   29 1
  54   28  176 1
  55   29   30 1
  56   29  177 1
  57   30   31 1
  58   30  178 1
  59   30  179 1
  60   31   32 1
  61   31  180 1
  62   31  181 1
  63   32   33 1
  64   32  182 1
  65   32  183 1
  66   33   34 1
  67   33  184 1
  68   34   35 2
  69   34   36 1
  70   35  185 1
  71   36  186 1
  72   36  187 1
  73   37   38 2
  74   37   40 1
  75   37   45 am
  76   39   40 1
  77   39  188 1
  78   40   41 1
  79   40  189 1
  80   41   42 1
  81   41  190 1
  82   41  191 1
  83   42  192 1
  84   43   44 2
  85   43   46 1
  86   43   53 am
  87   45   46 1
  88   45  193 1
  89   46   47 1
  90   46  194 1
  91   47   48 1
  92   47  195 1
  93   47  196 1
  94   48   49 2
  95   48   50 1
  96   50  197 1
  97   51   52 2
  98   51   54 1
  99   51   60 am
 100   53   54 1
 101   53  198 1
 102   54   55 1
 103   54  199 1
 104   55   56 1
 105   55   57 1
 106   55  200 1
 107   56  201 1
 108   56  202 1
 109   56  203 1
 110   57  204 1
 111   58   59 2
 112   58   61 1
 113   58   71 am
 114   60   61 1
 115   60  205 1
 116   61   62 1
 117   61  206 1
 118   62   63 1
 119   62  207 1
 120   62  208 1
 121   63   64 1
 122   63  209 1
 123   63  210 1
 124   64   65 1
 125   64  211 1
 126   64  212 1
 127   65   66 1
 128   65  213 1
 129   66   67 2
 130   66   68 1
 131   67  214 1
 132   68  215 1
 133   68  216 1
 134   69   70 2
 135   69   72 1
 136   69   80 am
 137   71   72 1
 138   71  217 1
 139   72   73 1
 140   72  218 1
 141   73   74 1
 142   73  219 1
 143   73  220 1
 144   74   75 1
 145   74  221 1
 146   74  222 1
 147   75   76 2
 148   75   77 am
 149   77  223 1
 150   77  224 1
 151   78   79 2
 152   78   81 1
 153   78   89 am
 154   80   81 1
 155   80  225 1
 156   81   82 1
 157   81  226 1
 158   82   83 1
 159   82  227 1
 160   82  228 1
 161   83   84 1
 162   83  229 1
 163   83  230 1
 164   84   85 2
 165   84   86 am
 166   86  231 1
 167   86  232 1
 168   87   88 2
 169   87   90 1
 170   87  101 am
 171   89   90 1
 172   89  233 1
 173   90   91 1
 174   90  234 1
 175   91   92 1
 176   91  235 1
 177   91  236 1
 178   92   93 ar
 179   92   98 ar
 180   93   94 ar
 181   93  237 1
 182   94   95 ar
 183   94  238 1
 184   95   96 1
 185   95   97 ar
 186   96  239 1
 187   97   98 ar
 188   97  240 1
 189   98  241 1
 190   99  100 2
 191   99  102 1
 192   99  112 am
 193  101  102 1
 194  101  242 1
 195  102  103 1
 196  102  243 1
 197  103  104 1
 198  103  244 1
 199  103  245 1
 200  104  105 1
 201  104  246 1
 202  104  247 1
 203  105  106 1
 204  105  248 1
 205  105  249 1
 206  106  107 1
 207  106  250 1
 208  107  108 2
 209  107  109 1
 210  108  251 1
 211  109  252 1
 212  109  253 1
 213  110  111 2
 214  110  113 1
 215  110  121 am
 216  112  113 1
 217  112  254 1
 218  113  114 1
 219  113  255 1
 220  114  115 1
 221  114  256 1
 222  114  257 1
 223  115  116 1
 224  115  258 1
 225  115  259 1
 226  116  117 1
 227  116  260 1
 228  116  261 1
 229  117  118 1
 230  117  262 1
 231  117  263 1
 232  118  264 1
 233  118  265 1
 234  119  120 2
 235  119  122 1
 236  119  129 am
 237  121  122 1
 238  121  266 1
 239  122  123 1
 240  122  267 1
 241  123  124 1
 242  123  268 1
 243  123  269 1
 244  124  125 1
 245  124  126 1
 246  124  270 1
 247  125  271 1
 248  125  272 1
 249  125  273 1
 250  126  274 1
 251  126  275 1
 252  126  276 1
 253  127  128 2
 254  127  130 1
 255  127  135 1
 256  129  130 1
 257  129  277 1
 258  130  131 1
 259  130  278 1
 260  131  132 1
 261  131  279 1
 262  131  280 1
 263  132  133 1
 264  132  134 1
 265  132  281 1
 266  133  282 1
 267  133  283 1
 268  133  284 1
 269  134  285 1
 270  134  286 1
 271  134  287 1
 272  135  288 1
 273  136  137 2
 274  136  152 1
 275  138  139 1
 276  138  289 1
 277  138  290 1
 278  138  291 1
 279  139  140 1
 280  139  292 1
 281  139  293 1
 282  140  141 1
 283  140  294 1
 284  140  295 1
 285  141  142 1
 286  141  296 1
 287  141  297 1
 288  142  143 1
 289  142  298 1
 290  142  299 1
 291  143  144 1
 292  143  300 1
 293  143  301 1
 294  144  145 1
 295  144  302 1
 296  144  303 1
 297  145  146 1
 298  145  304 1
 299  145  305 1
 300  146  147 1
 301  146  306 1
 302  146  307 1
 303  147  148 1
 304  147  308 1
 305  147  309 1
 306  148  149 1
 307  148  310 1
 308  148  311 1
 309  149  150 1
 310  149  312 1
 311  149  313 1
 312  150  151 1
 313  150  314 1
 314  150  315 1
 315  151  152 1
 316  151  316 1
 317  151  317 1
 318  152  318 1
 319  152  319 1

#	End of record

