#	Name: ASD07300218
#	Creating user name:	WinNT
#	Creation time:	15. 06. 2019 21:09

#	Modifying user name:	WinNT
#	Modification time:	15. 06. 2019 21:09

#	Program:	/corina/corina34_cracker 3.40 0067  02.08.2006

@<TRIPOS>MOLECULE
ASD07300218
  54   58    0    0    0
SMALL
NO_CHARGES


@<TRIPOS>ATOM
   1 C1            -0.6202     8.0677    -0.1342 C.2     
   2 C2            -0.8537     9.4521    -0.2195 C.2     
   3 C3             0.2060    10.3089    -0.2493 C.2     
   4 C4             1.5103     9.7990    -0.1947 C.2     
   5 C5             1.7142     8.4641    -0.1133 C.2     
   6 N6             0.6629     7.6032    -0.0826 N.pl3   
   7 N7            -1.4550     7.0299    -0.0950 N.2     
   8 C8            -0.7660     5.8988    -0.0131 C.2     
   9 C9             0.5909     6.2203    -0.0033 C.2     
  10 C10            1.6729     5.3199     0.0695 C.2     
  11 O11            1.4647     4.1219     0.1355 O.2     
  12 O12            2.9405     5.7858     0.0660 O.3     
  13 O13           -1.2892     4.6495     0.0459 O.3     
  14 C14           -2.6375     4.5275     0.1706 C.ar    
  15 C15           -3.4179     5.6526     0.3949 C.ar    
  16 C16           -4.7872     5.5292     0.5216 C.ar    
  17 C17           -5.3833     4.2791     0.4244 C.ar    
  18 C18           -4.6020     3.1536     0.1999 C.ar    
  19 C19           -3.2333     3.2787     0.0678 C.ar    
  20 C20           -7.4928     2.9653     0.4770 C.ar    
  21 C21           -8.8382     3.2993     0.6604 C.ar    
  22 C22           -9.7966     2.2971     0.6376 C.ar    
  23 C23           -9.3757     0.9913     0.4316 C.ar    
  24 C24           -8.0290     0.7332     0.2575 C.ar    
  25 N25           -7.1382     1.7057     0.2840 N.ar    
  26 C26           -7.6381     5.1620     0.7726 C.2     
  27 N27           -6.7744     4.1532     0.5535 N.am    
  28 N28           -8.8934     4.6786     0.8374 N.am    
  29 O29           -7.3316     6.3335     0.8907 O.2     
  30 C30          -10.1070     5.4676     1.0629 C.3     
  31 C31          -10.3798     5.5656     2.5652 C.3     
  32 C32            3.9880     4.8168     0.1421 C.3     
  33 C33            5.3426     5.5279     0.1259 C.3     
  34 H34           -1.8635     9.8329    -0.2613 H       
  35 H35            0.0415    11.3743    -0.3150 H       
  36 H36            2.3540    10.4729    -0.2179 H       
  37 H37            2.7223     8.0787    -0.0719 H       
  38 H38           -2.9541     6.6250     0.4708 H       
  39 H39           -5.3946     6.4050     0.6965 H       
  40 H40           -5.0652     2.1809     0.1246 H       
  41 H41           -2.6260     2.4038    -0.1113 H       
  42 H42          -10.8426     2.5270     0.7769 H       
  43 H43          -10.0931     0.1843     0.4079 H       
  44 H44           -7.7002    -0.2829     0.0970 H       
  45 H45           -9.9715     6.4681     0.6522 H       
  46 H46          -10.9512     4.9843     0.5711 H       
  47 H47          -10.5154     4.5651     2.9759 H       
  48 H48           -9.5356     6.0489     3.0570 H       
  49 H49          -11.2827     6.1527     2.7330 H       
  50 H50            3.8884     4.2458     1.0652 H       
  51 H51            3.9216     4.1421    -0.7114 H       
  52 H52            5.4422     6.0989    -0.7972 H       
  53 H53            5.4090     6.2026     0.9794 H       
  54 H54            6.1417     4.7888     0.1840 H       
@<TRIPOS>BOND
   1    1    2 1
   2    1    6 1
   3    1    7 2
   4    2    3 2
   5    2   34 1
   6    3    4 1
   7    3   35 1
   8    4    5 2
   9    4   36 1
  10    5    6 1
  11    5   37 1
  12    6    9 1
  13    7    8 1
  14    8    9 2
  15    8   13 1
  16    9   10 1
  17   10   11 2
  18   10   12 1
  19   12   32 1
  20   13   14 1
  21   14   15 ar
  22   14   19 ar
  23   15   16 ar
  24   15   38 1
  25   16   17 ar
  26   16   39 1
  27   17   18 ar
  28   17   27 1
  29   18   19 ar
  30   18   40 1
  31   19   41 1
  32   20   21 ar
  33   20   25 ar
  34   20   27 1
  35   21   22 ar
  36   21   28 1
  37   22   23 ar
  38   22   42 1
  39   23   24 ar
  40   23   43 1
  41   24   25 ar
  42   24   44 1
  43   26   27 am
  44   26   28 am
  45   26   29 2
  46   28   30 1
  47   30   31 1
  48   30   45 1
  49   30   46 1
  50   31   47 1
  51   31   48 1
  52   31   49 1
  53   32   33 1
  54   32   50 1
  55   32   51 1
  56   33   52 1
  57   33   53 1
  58   33   54 1

#	End of record

