#	Name: ASD01814682
#	Creating user name:	WinNT
#	Creation time:	15. 06. 2019 19:32

#	Modifying user name:	WinNT
#	Modification time:	15. 06. 2019 19:32

#	Program:	/corina/corina34_cracker 3.40 0067  02.08.2006

@<TRIPOS>MOLECULE
ASD01814682
  48   51    0    0    0
SMALL
NO_CHARGES


@<TRIPOS>ATOM
   1 C1            -0.0444     1.3530    -0.5640 C.2     
   2 N2            -1.3565     1.7099    -0.7409 N.pl3   
   3 N3            -2.1216     0.5394    -0.7116 N.2     
   4 C4            -1.3199    -0.4896    -0.5257 C.2     
   5 C5            -0.0172    -0.0296    -0.4283 C.2     
   6 C6            -1.3145    -1.9916    -0.3805 C.3     
   7 N7             0.0755    -2.4166    -0.1884 N.am    
   8 C8             0.9019    -1.2057    -0.2204 C.3     
   9 C9            -1.6858     3.0250    -0.9030 C.2     
  10 C10           -0.7029     3.9579    -0.8857 C.2     
  11 C11            0.6277     3.5544    -0.7024 C.2     
  12 N12            0.9193     2.2836    -0.5536 N.2     
  13 C13            0.5113    -3.6807    -0.0192 C.2     
  14 C14           -0.4586    -4.7870     0.0903 C.ar    
  15 O15            1.7039    -3.9093     0.0431 O.2     
  16 C16           -0.3190    -5.7493     1.0997 C.ar    
  17 C17           -1.2360    -6.7851     1.1938 C.ar    
  18 C18           -2.2820    -6.8677     0.2960 C.ar    
  19 C19           -2.4241    -5.9184    -0.7039 C.ar    
  20 C20           -1.5243    -4.8781    -0.8079 C.ar    
  21 O21            0.7095    -5.6679     1.9809 O.3     
  22 C22           -1.0368     5.4167    -1.0626 C.3     
  23 C23            1.7279     4.5841    -0.6817 C.3     
  24 C24           -3.1230     3.4338    -1.0989 C.3     
  25 C25            0.7876    -6.6842     2.9825 C.3     
  26 C26            2.0026    -6.4270     3.8762 C.3     
  27 Cl27          -3.7437    -6.0355    -1.8257 Cl      
  28 H28           -1.9121    -2.2812     0.4838 H       
  29 H29           -1.7201    -2.4513    -1.2818 H       
  30 H30            1.6161    -1.2663    -1.0417 H       
  31 H31            1.4331    -1.0970     0.7251 H       
  32 H32           -1.1318    -7.5286     1.9702 H       
  33 H33           -2.9931    -7.6768     0.3731 H       
  34 H34           -1.6412    -4.1376    -1.5854 H       
  35 H35           -1.2281     5.8664    -0.0883 H       
  36 H36           -0.1994     5.9259    -1.5396 H       
  37 H37           -1.9245     5.5130    -1.6878 H       
  38 H38            1.8827     4.9300     0.3403 H       
  39 H39            2.6491     4.1391    -1.0581 H       
  40 H40            1.4478     5.4278    -1.3124 H       
  41 H41           -3.5805     3.6299    -0.1291 H       
  42 H42           -3.1643     4.3360    -1.7092 H       
  43 H43           -3.6640     2.6311    -1.6001 H       
  44 H44           -0.1187    -6.6681     3.5878 H       
  45 H45            0.8880    -7.6586     2.5044 H       
  46 H46            2.9089    -6.4431     3.2708 H       
  47 H47            1.9022    -5.4526     4.3543 H       
  48 H48            2.0622    -7.2022     4.6402 H       
@<TRIPOS>BOND
   1    1    5 2
   2    1   12 1
   3    1    2 1
   4    2    3 1
   5    2    9 1
   6    3    4 2
   7    4    6 1
   8    4    5 1
   9    5    8 1
  10    6    7 1
  11    6   28 1
  12    6   29 1
  13    7    8 1
  14    7   13 am
  15    8   30 1
  16    8   31 1
  17    9   10 2
  18    9   24 1
  19   10   11 1
  20   10   22 1
  21   11   12 2
  22   11   23 1
  23   13   14 1
  24   13   15 2
  25   14   16 ar
  26   14   20 ar
  27   16   17 ar
  28   16   21 1
  29   17   18 ar
  30   17   32 1
  31   18   19 ar
  32   18   33 1
  33   19   20 ar
  34   19   27 1
  35   20   34 1
  36   21   25 1
  37   22   35 1
  38   22   36 1
  39   22   37 1
  40   23   38 1
  41   23   39 1
  42   23   40 1
  43   24   41 1
  44   24   42 1
  45   24   43 1
  46   25   26 1
  47   25   44 1
  48   25   45 1
  49   26   46 1
  50   26   47 1
  51   26   48 1

#	End of record

