#	Name: ASD01882593
#	Creating user name:	WinNT
#	Creation time:	15. 06. 2019 19:44

#	Modifying user name:	WinNT
#	Modification time:	15. 06. 2019 19:44

#	Program:	/corina/corina34_cracker 3.40 0067  02.08.2006

@<TRIPOS>MOLECULE
ASD01882593
  54   58    0    0    0
SMALL
NO_CHARGES


@<TRIPOS>ATOM
   1 C1             0.2377     1.4309     0.5345 C.2     
   2 C2             0.0563     0.1007     0.1094 C.2     
   3 C3             1.0864    -0.5495    -0.4958 C.2     
   4 C4             2.3118     0.1116    -0.6876 C.2     
   5 C5             2.4712     1.3865    -0.2746 C.2     
   6 N6             1.4467     2.0506     0.3332 N.pl3   
   7 N7             0.0947     3.4104     1.3111 N.2     
   8 N8            -0.5492     2.3108     1.1319 N.2     
   9 C9             1.3116     3.3049     0.8428 C.2     
  10 C10           -1.2636    -0.5945     0.3229 C.3     
  11 F11           -1.1704    -1.4417     1.4322 F       
  12 F12           -2.2621     0.3594     0.5472 F       
  13 F13           -1.5836    -1.3464    -0.8126 F       
  14 C14            2.3698     4.3777     0.8620 C.3     
  15 C15            2.2719     5.2135    -0.4159 C.3     
  16 C16            3.1888     6.4325    -0.5346 C.3     
  17 C17            3.4651     5.1829    -1.3731 C.3     
  18 C18            0.9147    -1.9734    -0.9583 C.3     
  19 N19            0.5202    -1.9845    -2.3733 N.3     
  20 C20            0.5732    -3.3459    -2.9241 C.3     
  21 C21            0.0803    -3.3266    -4.3730 C.3     
  22 N22            0.9171    -2.4101    -5.1601 N.3     
  23 C23            0.8641    -1.0488    -4.6093 C.3     
  24 C24            1.3570    -1.0680    -3.1604 C.3     
  25 C25            0.5414    -2.4207    -6.5077 C.ar    
  26 C26            0.7259    -3.5664    -7.2728 C.ar    
  27 C27            0.3535    -3.5741    -8.6035 C.ar    
  28 C28           -0.2030    -2.4416    -9.1743 C.ar    
  29 C29           -0.3874    -1.2998    -8.4137 C.ar    
  30 C30           -0.0215    -1.2889    -7.0813 C.ar    
  31 F31           -0.5660    -2.4511   -10.4755 F       
  32 Cl32           1.4240    -4.9858    -6.5576 Cl      
  33 H33            3.1305    -0.4036    -1.1680 H       
  34 H34            3.4172     1.8847    -0.4268 H       
  35 H35            2.2195     5.0208     1.7291 H       
  36 H36            3.3551     3.9152     0.9190 H       
  37 H37            1.2766     5.2877    -0.8540 H       
  38 H38            2.7968     7.3087    -1.0512 H       
  39 H39            3.8617     6.6392     0.2976 H       
  40 H40            4.3198     4.5674    -1.0924 H       
  41 H41            3.2549     5.2369    -2.4412 H       
  42 H42            1.8559    -2.5101    -0.8392 H       
  43 H43            0.1420    -2.4585    -0.3618 H       
  44 H44            1.5999    -3.7107    -2.8941 H       
  45 H45           -0.0639    -4.0028    -2.3320 H       
  46 H46            0.1460    -4.3303    -4.7928 H       
  47 H47           -0.9553    -2.9877    -4.4003 H       
  48 H48            1.5012    -0.3918    -5.2014 H       
  49 H49           -0.1626    -0.6840    -4.6393 H       
  50 H50            1.2913    -0.0643    -2.7406 H       
  51 H51            2.3926    -1.4069    -3.1331 H       
  52 H52            0.4968    -4.4638    -9.1988 H       
  53 H53           -0.8216    -0.4179    -8.8611 H       
  54 H54           -0.1695    -0.3990    -6.4876 H       
@<TRIPOS>BOND
   1    1    2 1
   2    1    6 1
   3    1    8 2
   4    2    3 2
   5    2   10 1
   6    3    4 1
   7    3   18 1
   8    4    5 2
   9    4   33 1
  10    5    6 1
  11    5   34 1
  12    6    9 1
  13    7    8 1
  14    7    9 2
  15    9   14 1
  16   10   11 1
  17   10   12 1
  18   10   13 1
  19   14   15 1
  20   14   35 1
  21   14   36 1
  22   15   16 1
  23   15   17 1
  24   15   37 1
  25   16   17 1
  26   16   38 1
  27   16   39 1
  28   17   40 1
  29   17   41 1
  30   18   19 1
  31   18   42 1
  32   18   43 1
  33   19   20 1
  34   19   24 1
  35   20   21 1
  36   20   44 1
  37   20   45 1
  38   21   22 1
  39   21   46 1
  40   21   47 1
  41   22   23 1
  42   22   25 1
  43   23   24 1
  44   23   48 1
  45   23   49 1
  46   24   50 1
  47   24   51 1
  48   25   26 ar
  49   25   30 ar
  50   26   27 ar
  51   26   32 1
  52   27   28 ar
  53   27   52 1
  54   28   29 ar
  55   28   31 1
  56   29   30 ar
  57   29   53 1
  58   30   54 1

#	End of record

