#	Name: ASD03430344
#	Creating user name:	WinNT
#	Creation time:	15. 06. 2019 20:40

#	Modifying user name:	WinNT
#	Modification time:	15. 06. 2019 20:40

#	Program:	/corina/corina34_cracker 3.40 0067  02.08.2006

@<TRIPOS>MOLECULE
ASD03430344
  55   60    0    0    0
SMALL
NO_CHARGES


@<TRIPOS>ATOM
   1 C1            -0.0167     1.3822     0.0096 C.ar    
   2 C2             0.0021    -0.0041     0.0020 C.ar    
   3 C3             1.2028    -0.6819    -0.0155 C.ar    
   4 C4             2.4086     0.0129    -0.0153 C.ar    
   5 C5             2.3861     1.4040    -0.0116 C.ar    
   6 C6             1.1815     2.0868     0.0020 C.ar    
   7 O7             3.4714    -0.8418    -0.0052 O.3     
   8 C8             1.5512    -2.1458    -0.0497 C.3     
   9 C9             3.0368    -2.1459    -0.4358 C.3     
  10 C10            0.4288    -3.8613     1.0076 C.ar    
  11 C11            1.3154    -2.8199     1.2694 C.ar    
  12 C12            0.7179    -2.9069    -1.0403 C.2     
  13 N13            0.0997    -3.8858    -0.3500 N.am    
  14 O14            0.6202    -2.6845    -2.2286 O.2     
  15 C15            1.7820    -2.5975     2.5511 C.ar    
  16 C16            1.3681    -3.4164     3.5925 C.ar    
  17 C17            0.4861    -4.4564     3.3408 C.ar    
  18 C18            0.0179    -4.6789     2.0565 C.ar    
  19 C19           -0.8116    -4.8615    -0.9529 C.3     
  20 O20           -1.2113     2.0356     0.0189 O.3     
  21 C21           -1.1865     3.4160     0.3985 C.3     
  22 C22           -0.0351     4.0994    -0.3517 C.3     
  23 O23            1.1866     3.4485     0.0119 O.3     
  24 C24           -2.2200    -4.3270    -0.9096 C.ar    
  25 N25           -2.9499    -4.5004     0.1751 N.ar    
  26 C26           -4.1864    -4.0501     0.2580 C.ar    
  27 C27           -4.0289    -3.1735    -1.9571 C.ar    
  28 C28           -4.7654    -3.3749    -0.8000 C.ar    
  29 O29            2.6466    -1.5771     2.7918 O.3     
  30 C30            3.0882    -1.4052     4.1399 C.3     
  31 O31            0.0793    -5.2601     4.3583 O.3     
  32 C32            0.6001    -4.9751     5.6581 C.3     
  33 C33           -2.7298    -3.6561    -2.0048 C.ar    
  34 H34           -0.9268    -0.5549     0.0101 H       
  35 H35            3.3148     1.9552    -0.0194 H       
  36 H36            3.1566    -2.2575    -1.5135 H       
  37 H37            3.5753    -2.9290     0.0978 H       
  38 H38            1.7311    -3.2440     4.5950 H       
  39 H39           -0.6690    -5.4907     1.8680 H       
  40 H40           -0.5216    -5.0378    -1.9887 H       
  41 H41           -0.7611    -5.7978    -0.3970 H       
  42 H42           -2.1316     3.8881     0.1303 H       
  43 H43           -1.0254     3.4989     1.4733 H       
  44 H44           -0.1925     4.0100    -1.4266 H       
  45 H45            0.0117     5.1520    -0.0728 H       
  46 H46           -4.7535    -4.2112     1.1629 H       
  47 H47           -4.4554    -2.6496    -2.7997 H       
  48 H48           -5.7804    -3.0128    -0.7279 H       
  49 H49            3.7725    -0.5585     4.1930 H       
  50 H50            2.2281    -1.2181     4.7829 H       
  51 H51            3.6007    -2.3079     4.4723 H       
  52 H52            1.6871    -5.0538     5.6393 H       
  53 H53            0.3140    -3.9648     5.9506 H       
  54 H54            0.1964    -5.6892     6.3759 H       
  55 H55           -2.1269    -3.5168    -2.8900 H       
@<TRIPOS>BOND
   1    1    2 ar
   2    1    6 ar
   3    1   20 1
   4    2    3 ar
   5    2   34 1
   6    3    4 ar
   7    3    8 1
   8    4    5 ar
   9    4    7 1
  10    5    6 ar
  11    5   35 1
  12    6   23 1
  13    7    9 1
  14    8    9 1
  15    8   11 1
  16    8   12 1
  17    9   36 1
  18    9   37 1
  19   10   11 ar
  20   10   13 1
  21   10   18 ar
  22   11   15 ar
  23   12   13 am
  24   12   14 2
  25   13   19 1
  26   15   16 ar
  27   15   29 1
  28   16   17 ar
  29   16   38 1
  30   17   18 ar
  31   17   31 1
  32   18   39 1
  33   19   24 1
  34   19   40 1
  35   19   41 1
  36   20   21 1
  37   21   22 1
  38   21   42 1
  39   21   43 1
  40   22   23 1
  41   22   44 1
  42   22   45 1
  43   24   25 ar
  44   24   33 ar
  45   25   26 ar
  46   26   28 ar
  47   26   46 1
  48   27   28 ar
  49   27   33 ar
  50   27   47 1
  51   28   48 1
  52   29   30 1
  53   30   49 1
  54   30   50 1
  55   30   51 1
  56   31   32 1
  57   32   52 1
  58   32   53 1
  59   32   54 1
  60   33   55 1

#	End of record

