#	Name: ASD05143108
#	Creating user name:	WinNT
#	Creation time:	15. 06. 2019 20:57

#	Modifying user name:	WinNT
#	Modification time:	15. 06. 2019 20:57

#	Program:	/corina/corina34_cracker 3.40 0067  02.08.2006

@<TRIPOS>MOLECULE
ASD05143108
 144  147    0    0    0
SMALL
NO_CHARGES


@<TRIPOS>ATOM
   1 C1             0.3287     0.8301    -3.7951 C.2     
   2 C2             0.4776    -0.5539    -4.3726 C.3     
   3 N3             1.4230     1.5404    -3.4568 N.am    
   4 O4            -0.7756     1.3067    -3.6395 O.2     
   5 C5             1.2783     2.8859    -2.8954 C.3     
   6 C6             0.5519     3.7823    -3.9002 C.3     
   7 C7             0.4815     2.8143    -1.6183 C.2     
   8 C8             1.4189     3.9558    -5.1489 C.3     
   9 C9             0.6924     4.8522    -6.1537 C.3     
  10 N10            1.5226     5.0183    -7.3493 N.pl3   
  11 C11            1.0740     5.7884    -8.3961 C.2     
  12 N12            1.8531     5.9443    -9.5181 N.pl3   
  13 N13           -0.0899     6.3708    -8.3248 N.2     
  14 O14           -0.2237     1.8528    -1.3966 O.2     
  15 N15            0.5526     3.8187    -0.7225 N.am    
  16 C16           -0.2220     3.7492     0.5190 C.3     
  17 C17            0.4539     4.6070     1.5905 C.3     
  18 C18            1.7287     3.9110     2.0715 C.3     
  19 C19            2.8255     4.9537     2.2961 C.3     
  20 N20            2.9078     5.2497     3.7447 N.am    
  21 C21            3.2074     6.5446     4.0612 C.2     
  22 C22            3.4207     7.5328     2.9435 C.3     
  23 C23            4.3937     8.6203     3.4031 C.3     
  24 C24            3.6268     9.7002     4.1690 C.3     
  25 N25            3.2486    10.7745     3.2293 N.am    
  26 C26            4.5029    10.2662     5.2567 C.2     
  27 N27            4.6523     9.5981     6.4177 N.am    
  28 O28            5.0736    11.3229     5.0873 O.2     
  29 C29            2.2242    11.5852     3.6119 C.2     
  30 O30            1.6668    11.4115     4.6750 O.2     
  31 C31            1.7924    12.7018     2.6965 C.3     
  32 N32            0.3126    12.7297     2.6501 N.am    
  33 C33            2.3146    14.0363     3.2326 C.3     
  34 C34           -0.2380    12.5171     1.4180 C.2     
  35 O35            0.4682    12.3233     0.4512 O.2     
  36 C36           -1.7388    12.5271     1.2822 C.3     
  37 N37           -2.1266    11.5855     0.2129 N.am    
  38 C38           -2.3762    12.0929     2.6037 C.3     
  39 C39           -3.1997    10.7869     0.4649 C.2     
  40 O40           -3.7948    10.8715     1.5183 O.2     
  41 C41           -3.6387     9.7965    -0.5830 C.3     
  42 C42            1.9872    15.1338     2.2531 C.2     
  43 C43            0.7300    15.8812     2.1701 C.ar    
  44 C44            0.8896    16.7939     1.1117 C.ar    
  45 N45            2.1534    16.6045     0.5990 N.pl3   
  46 C46            2.7943    15.6160     1.2950 C.2     
  47 C47           -0.4690    15.8458     2.8848 C.ar    
  48 C48           -1.4826    16.6992     2.5517 C.ar    
  49 C49           -1.3302    17.6016     1.5076 C.ar    
  50 C50           -0.1556    17.6540     0.7900 C.ar    
  51 N51           -3.7126     8.4544     0.0387 N.am    
  52 C52           -2.6247     9.7770    -1.7285 C.3     
  53 C53           -1.2294     9.7085    -1.1632 C.ar    
  54 C54           -0.7668     8.5303    -0.6078 C.ar    
  55 C55            0.5147     8.4651    -0.0884 C.ar    
  56 C56            1.3341     9.5823    -0.1255 C.ar    
  57 C57            0.8684    10.7628    -0.6828 C.ar    
  58 C58           -0.4119    10.8223    -1.2059 C.ar    
  59 C59           -1.6169     4.2622     0.2701 C.2     
  60 O60           -2.5529     3.4932     0.2099 O.2     
  61 C61           -1.9495    10.6602     2.9292 C.3     
  62 C62           -2.4896    10.2675     4.3058 C.3     
  63 N63           -2.0811     8.8955     4.6175 N.pl3   
  64 C64           -2.4526     8.3219     5.8104 C.2     
  65 N65           -2.0692     7.0344     6.1029 N.pl3   
  66 N66           -3.1683     8.9986     6.6640 N.2     
  67 N67           -1.8124     5.6002     0.1141 N.am    
  68 C68           -3.2000     6.0407    -0.1327 C.3     
  69 C69           -3.1733     7.4377    -0.6975 C.2     
  70 O70           -2.6824     7.6553    -1.7850 O.2     
  71 C71           -3.9816     6.0343     1.1826 C.3     
  72 C72           -5.4400     6.2894     0.9015 C.2     
  73 N73           -6.3398     6.2298     1.9031 N.am    
  74 F74            2.5849     9.5209     0.3813 F       
  75 O75           -5.8040     6.5483    -0.2261 O.2     
  76 F76            0.9661     7.3134     0.4547 F       
  77 F77            1.6650    11.8533    -0.7197 F       
  78 O78            3.3003     6.8921     5.2194 O.2     
  79 H79            0.9951    -1.1925    -3.6567 H       
  80 H80           -0.5086    -0.9680    -4.5823 H       
  81 H81            1.0539    -0.5021    -5.2963 H       
  82 H82            2.3064     1.1608    -3.5850 H       
  83 H83            2.2645     3.3000    -2.6857 H       
  84 H84           -0.3968     3.3227    -4.1776 H       
  85 H85            0.3653     4.7569    -3.4492 H       
  86 H86            2.3676     4.4153    -4.8715 H       
  87 H87            1.6054     2.9812    -5.6000 H       
  88 H88           -0.2562     4.3926    -6.4310 H       
  89 H89            0.5059     5.8268    -5.7026 H       
  90 H90            2.3888     4.5849    -7.4023 H       
  91 H91            2.7193     5.5110    -9.5711 H       
  92 H92            1.5366     6.4877   -10.2567 H       
  93 H93           -0.4064     6.9141    -9.0634 H       
  94 H94            1.1166     4.5877    -0.8998 H       
  95 H95           -0.2708     2.7148     0.8592 H       
  96 H96            0.7077     5.5801     1.1701 H       
  97 H97           -0.2265     4.7408     2.4314 H       
  98 H98            1.5268     3.3889     3.0068 H       
  99 H99            2.0574     3.1942     1.3189 H       
 100 H100           3.7808     4.5606     1.9482 H       
 101 H101           2.5814     5.8649     1.7499 H       
 102 H102           2.7591     4.5713     4.4219 H       
 103 H103           3.8349     7.0174     2.0770 H       
 104 H104           2.4677     7.9881     2.6742 H       
 105 H105           5.1492     8.1804     4.0541 H       
 106 H106           4.8777     9.0657     2.5340 H       
 107 H107           2.7286     9.2673     4.6094 H       
 108 H108           3.7068    10.8965     2.3831 H       
 109 H109           4.1959     8.7530     6.5531 H       
 110 H110           5.2163     9.9625     7.1178 H       
 111 H111           2.1866    12.5274     1.6954 H       
 112 H112          -0.2283    12.8882     3.4396 H       
 113 H113           1.8430    14.2523     4.1913 H       
 114 H114           3.3950    13.9772     3.3642 H       
 115 H115          -2.0756    13.5313     1.0245 H       
 116 H116          -1.6418    11.5387    -0.6260 H       
 117 H117          -2.0487    12.7597     3.4014 H       
 118 H118          -3.4617    12.1376     2.5155 H       
 119 H119          -4.6203    10.0779    -0.9642 H       
 120 H120           2.5340    17.1005    -0.1426 H       
 121 H121           3.7981    15.2696     1.0976 H       
 122 H122          -0.5949    15.1460     3.6977 H       
 123 H123          -2.4098    16.6715     3.1047 H       
 124 H124          -2.1406    18.2696     1.2559 H       
 125 H125          -0.0467    18.3597    -0.0202 H       
 126 H126          -4.1157     8.3074     0.9086 H       
 127 H127          -2.8047     8.9058    -2.3583 H       
 128 H128          -2.7314    10.6839    -2.3237 H       
 129 H129          -1.4058     7.6600    -0.5788 H       
 130 H130          -0.7752    11.7419    -1.6402 H       
 131 H131          -2.3489     9.9819     2.1752 H       
 132 H132          -0.8613    10.5974     2.9345 H       
 133 H133          -2.0903    10.9457     5.0598 H       
 134 H134          -3.5778    10.3302     4.3005 H       
 135 H135          -1.5484     8.3919     3.9822 H       
 136 H136          -1.5365     6.5308     5.4676 H       
 137 H137          -2.3313     6.6296     6.9445 H       
 138 H138          -3.4305     8.5938     7.5056 H       
 139 H139          -1.0779     6.2319     0.1630 H       
 140 H140          -3.6756     5.3674    -0.8458 H       
 141 H141          -3.8692     5.0645     1.6673 H       
 142 H142          -3.5959     6.8150     1.8382 H       
 143 H143          -6.0487     6.0227     2.8049 H       
 144 H144          -7.2785     6.3940     1.7222 H       
@<TRIPOS>BOND
   1    1    2 1
   2    1    3 am
   3    1    4 2
   4    2   79 1
   5    2   80 1
   6    2   81 1
   7    3    5 1
   8    3   82 1
   9    5    6 1
  10    5    7 1
  11    5   83 1
  12    6    8 1
  13    6   84 1
  14    6   85 1
  15    7   14 2
  16    7   15 am
  17    8    9 1
  18    8   86 1
  19    8   87 1
  20    9   10 1
  21    9   88 1
  22    9   89 1
  23   10   11 1
  24   10   90 1
  25   11   12 1
  26   11   13 2
  27   12   91 1
  28   12   92 1
  29   13   93 1
  30   15   16 1
  31   15   94 1
  32   16   17 1
  33   16   59 1
  34   16   95 1
  35   17   18 1
  36   17   96 1
  37   17   97 1
  38   18   19 1
  39   18   98 1
  40   18   99 1
  41   19   20 1
  42   19  100 1
  43   19  101 1
  44   20   21 am
  45   20  102 1
  46   21   22 1
  47   21   78 2
  48   22   23 1
  49   22  103 1
  50   22  104 1
  51   23   24 1
  52   23  105 1
  53   23  106 1
  54   24   25 1
  55   24   26 1
  56   24  107 1
  57   25   29 am
  58   25  108 1
  59   26   27 am
  60   26   28 2
  61   27  109 1
  62   27  110 1
  63   29   30 2
  64   29   31 1
  65   31   32 1
  66   31   33 1
  67   31  111 1
  68   32   34 am
  69   32  112 1
  70   33   42 1
  71   33  113 1
  72   33  114 1
  73   34   35 2
  74   34   36 1
  75   36   37 1
  76   36   38 1
  77   36  115 1
  78   37   39 am
  79   37  116 1
  80   38   61 1
  81   38  117 1
  82   38  118 1
  83   39   40 2
  84   39   41 1
  85   41   51 1
  86   41   52 1
  87   41  119 1
  88   42   43 1
  89   42   46 2
  90   43   44 ar
  91   43   47 ar
  92   44   45 1
  93   44   50 ar
  94   45   46 1
  95   45  120 1
  96   46  121 1
  97   47   48 ar
  98   47  122 1
  99   48   49 ar
 100   48  123 1
 101   49   50 ar
 102   49  124 1
 103   50  125 1
 104   51   69 am
 105   51  126 1
 106   52   53 1
 107   52  127 1
 108   52  128 1
 109   53   54 ar
 110   53   58 ar
 111   54   55 ar
 112   54  129 1
 113   55   56 ar
 114   55   76 1
 115   56   57 ar
 116   56   74 1
 117   57   58 ar
 118   57   77 1
 119   58  130 1
 120   59   60 2
 121   59   67 am
 122   61   62 1
 123   61  131 1
 124   61  132 1
 125   62   63 1
 126   62  133 1
 127   62  134 1
 128   63   64 1
 129   63  135 1
 130   64   65 1
 131   64   66 2
 132   65  136 1
 133   65  137 1
 134   66  138 1
 135   67   68 1
 136   67  139 1
 137   68   69 1
 138   68   71 1
 139   68  140 1
 140   69   70 2
 141   71   72 1
 142   71  141 1
 143   71  142 1
 144   72   73 am
 145   72   75 2
 146   73  143 1
 147   73  144 1

#	End of record

