#	Name: ASD04882135
#	Creating user name:	WinNT
#	Creation time:	15. 06. 2019 20:54

#	Modifying user name:	WinNT
#	Modification time:	15. 06. 2019 20:54

#	Program:	/corina/corina34_cracker 3.40 0067  02.08.2006

@<TRIPOS>MOLECULE
ASD04882135
  74   78    0    0    0
SMALL
NO_CHARGES


@<TRIPOS>ATOM
   1 C1            -0.1617     1.4753     0.4527 C.2     
   2 C2            -0.1421     0.0096     0.4874 C.2     
   3 O3             0.7969    -0.5746     0.9958 O.2     
   4 N4            -1.1638    -0.6908    -0.0437 N.am    
   5 C5            -1.0913    -2.0879    -0.1183 C.ar    
   6 C6            -2.2498    -2.8572     0.0250 C.ar    
   7 C7            -2.1795    -4.2432    -0.0492 C.ar    
   8 C8            -0.9686    -4.8640    -0.2641 C.ar    
   9 C9             0.1931    -4.1011    -0.4083 C.ar    
  10 C10            0.1244    -2.7064    -0.3392 C.ar    
  11 N11           -3.4758    -2.2338     0.2429 N.3     
  12 C12           -3.5001    -1.5617     1.5495 C.3     
  13 C13           -4.8309    -0.8244     1.7163 C.3     
  14 N14           -5.9376    -1.7842     1.6004 N.3     
  15 C15           -5.9134    -2.4563     0.2937 C.3     
  16 C16           -4.5826    -3.1937     0.1270 C.3     
  17 C17           -7.1688    -1.1582     1.8191 C.ar    
  18 C18           -8.1396    -1.1615     0.8226 C.ar    
  19 C19           -9.6060     0.0811     2.2527 C.ar    
  20 C20           -7.4274    -0.5371     3.0331 C.ar    
  21 C21           -9.3553    -0.5415     1.0431 C.ar    
  22 C22           -8.6451     0.0807     3.2463 C.ar    
  23 C23            1.4898    -4.7662    -0.6380 C.2     
  24 N24            1.5543    -6.1106    -0.7090 N.am    
  25 O25            2.5003    -4.1016    -0.7633 O.2     
  26 C26            2.8420    -6.7711    -0.9371 C.3     
  27 C27            2.6380    -8.2870    -0.9746 C.3     
  28 C28            3.9827    -8.9768    -1.2128 C.3     
  29 N29            3.7874   -10.4282    -1.2487 N.am    
  30 C30            3.5182   -11.1300    -2.3631 C.2     
  31 C31            3.8668   -11.3038    -0.0735 C.3     
  32 C32            3.1802   -12.6220    -0.4945 C.3     
  33 C33            3.3691   -12.5982    -2.0302 C.3     
  34 O34            3.4098   -10.6551    -3.4738 O.2     
  35 F35           -7.8944    -1.7692    -0.3588 F       
  36 C36            0.8033     2.3028     0.9516 C.2     
  37 C37            0.3767     3.6166     0.7022 C.2     
  38 C38           -0.8149     3.5346     0.0702 C.2     
  39 O39           -1.1335     2.2427    -0.0829 O.3     
  40 C40           -1.6459     4.7041    -0.3912 C.3     
  41 H41           -1.9492    -0.2276    -0.3744 H       
  42 H42           -3.0761    -4.8349     0.0623 H       
  43 H43           -0.9172    -5.9413    -0.3210 H       
  44 H44            1.0200    -2.1140    -0.4547 H       
  45 H45           -3.3932    -2.3028     2.3417 H       
  46 H46           -2.6789    -0.8472     1.6062 H       
  47 H47           -4.8629    -0.3491     2.6967 H       
  48 H48           -4.9255    -0.0648     0.9403 H       
  49 H49           -6.7346    -3.1708     0.2370 H       
  50 H50           -6.0203    -1.7153    -0.4984 H       
  51 H51           -4.5506    -3.6690    -0.8534 H       
  52 H52           -4.4880    -3.9533     0.9030 H       
  53 H53          -10.5564     0.5652     2.4226 H       
  54 H54           -6.6778    -0.5369     3.8105 H       
  55 H55          -10.1097    -0.5429     0.2703 H       
  56 H56           -8.8444     0.5682     4.1892 H       
  57 H57            0.7483    -6.6408    -0.6090 H       
  58 H58            3.2584    -6.4369    -1.8874 H       
  59 H59            3.5288    -6.5167    -0.1299 H       
  60 H60            2.2215    -8.6211    -0.0243 H       
  61 H61            1.9511    -8.5413    -1.7818 H       
  62 H62            4.3992    -8.6426    -2.1631 H       
  63 H63            4.6696    -8.7224    -0.4056 H       
  64 H64            4.9083   -11.4883     0.1897 H       
  65 H65            3.3382   -10.8551     0.7675 H       
  66 H66            3.6844   -13.4823    -0.0544 H       
  67 H67            2.1231   -12.6134    -0.2290 H       
  68 H68            2.4943   -13.0156    -2.5287 H       
  69 H69            4.2680   -13.1462    -2.3125 H       
  70 H70            1.7174     2.0042     1.4432 H       
  71 H71            0.9018     4.5227     0.9663 H       
  72 H72           -1.3639     4.9709    -1.4097 H       
  73 H73           -2.7012     4.4325    -0.3657 H       
  74 H74           -1.4736     5.5548     0.2681 H       
@<TRIPOS>BOND
   1    1    2 1
   2    1   36 2
   3    1   39 1
   4    2    3 2
   5    2    4 am
   6    4    5 1
   7    4   41 1
   8    5    6 ar
   9    5   10 ar
  10    6    7 ar
  11    6   11 1
  12    7    8 ar
  13    7   42 1
  14    8    9 ar
  15    8   43 1
  16    9   10 ar
  17    9   23 1
  18   10   44 1
  19   11   12 1
  20   11   16 1
  21   12   13 1
  22   12   45 1
  23   12   46 1
  24   13   14 1
  25   13   47 1
  26   13   48 1
  27   14   15 1
  28   14   17 1
  29   15   16 1
  30   15   49 1
  31   15   50 1
  32   16   51 1
  33   16   52 1
  34   17   18 ar
  35   17   20 ar
  36   18   21 ar
  37   18   35 1
  38   19   21 ar
  39   19   22 ar
  40   19   53 1
  41   20   22 ar
  42   20   54 1
  43   21   55 1
  44   22   56 1
  45   23   24 am
  46   23   25 2
  47   24   26 1
  48   24   57 1
  49   26   27 1
  50   26   58 1
  51   26   59 1
  52   27   28 1
  53   27   60 1
  54   27   61 1
  55   28   29 1
  56   28   62 1
  57   28   63 1
  58   29   30 am
  59   29   31 1
  60   30   34 2
  61   30   33 1
  62   31   32 1
  63   31   64 1
  64   31   65 1
  65   32   33 1
  66   32   66 1
  67   32   67 1
  68   33   68 1
  69   33   69 1
  70   36   37 1
  71   36   70 1
  72   37   38 2
  73   37   71 1
  74   38   39 1
  75   38   40 1
  76   40   72 1
  77   40   73 1
  78   40   74 1

#	End of record

