#	Name: ASD02039166
#	Creating user name:	WinNT
#	Creation time:	15. 06. 2019 20:17

#	Modifying user name:	WinNT
#	Modification time:	15. 06. 2019 20:17

#	Program:	/corina/corina34_cracker 3.40 0067  02.08.2006

@<TRIPOS>MOLECULE
ASD02039166
  39   42    0    0    0
SMALL
NO_CHARGES


@<TRIPOS>ATOM
   1 N1            -0.0009     1.2804     0.2555 N.2     
   2 C2             0.0074    -0.0199     0.1290 C.2     
   3 N3             1.2988    -0.4142     0.1377 N.2     
   4 C4             2.0014     0.6839     0.2704 C.2     
   5 O5             1.1345     1.6990     0.3378 O.3     
   6 C6             3.5037     0.7835     0.3350 C.3     
   7 O7             4.0275     0.9456    -0.9846 O.3     
   8 C8             5.3777     1.0519    -1.1041 C.ar    
   9 N9            -1.1051    -0.8435     0.0088 N.pl3   
  10 C10           -2.3900    -0.3050     0.1298 C.ar    
  11 C11           -3.4561    -0.8916    -0.5399 C.ar    
  12 C12           -4.7241    -0.3581    -0.4183 C.ar    
  13 C13           -4.9331     0.7600     0.3700 C.ar    
  14 C14           -3.8726     1.3467     1.0380 C.ar    
  15 C15           -2.6035     0.8140     0.9244 C.ar    
  16 C16            6.1803     1.0004     0.0334 C.ar    
  17 C17            7.5496     1.1064    -0.0685 C.ar    
  18 C18            8.1433     1.2662    -1.3163 C.ar    
  19 C19            7.3362     1.3183    -2.4681 C.ar    
  20 C20            5.9468     1.2047    -2.3522 C.ar    
  21 N21            9.5136     1.3753    -1.4392 N.am    
  22 C22           10.0899     1.5308    -2.6439 C.2     
  23 C23            9.3253     1.5890    -3.8286 C.2     
  24 C24            7.9741     1.4879    -3.7750 C.2     
  25 O25           11.3032     1.6242    -2.7146 O.2     
  26 Cl26          -6.5283     1.4280     0.5206 Cl      
  27 H27            3.7851     1.6415     0.9456 H       
  28 H28            3.9095    -0.1262     0.7777 H       
  29 H29           -0.9905    -1.7919    -0.1591 H       
  30 H30           -3.2936    -1.7640    -1.1555 H       
  31 H31           -5.5534    -0.8136    -0.9391 H       
  32 H32           -4.0384     2.2197     1.6519 H       
  33 H33           -1.7764     1.2721     1.4463 H       
  34 H34            5.7243     0.8765     1.0045 H       
  35 H35            8.1622     1.0659     0.8200 H       
  36 H36            5.3228     1.2440    -3.2329 H       
  37 H37           10.0691     1.3397    -0.6448 H       
  38 H38            9.8181     1.7146    -4.7814 H       
  39 H39            7.3814     1.5311    -4.6768 H       
@<TRIPOS>BOND
   1    1    2 2
   2    1    5 1
   3    2    3 1
   4    2    9 1
   5    3    4 2
   6    4    5 1
   7    4    6 1
   8    6    7 1
   9    6   27 1
  10    6   28 1
  11    7    8 1
  12    8   16 ar
  13    8   20 ar
  14    9   10 1
  15    9   29 1
  16   10   11 ar
  17   10   15 ar
  18   11   12 ar
  19   11   30 1
  20   12   13 ar
  21   12   31 1
  22   13   14 ar
  23   13   26 1
  24   14   15 ar
  25   14   32 1
  26   15   33 1
  27   16   17 ar
  28   16   34 1
  29   17   18 ar
  30   17   35 1
  31   18   19 ar
  32   18   21 1
  33   19   20 ar
  34   19   24 1
  35   20   36 1
  36   21   22 am
  37   21   37 1
  38   22   23 1
  39   22   25 2
  40   23   24 2
  41   23   38 1
  42   24   39 1

#	End of record

