#	Name: ASD02030736
#	Creating user name:	WinNT
#	Creation time:	15. 06. 2019 20:16

#	Modifying user name:	WinNT
#	Modification time:	15. 06. 2019 20:16

#	Program:	/corina/corina34_cracker 3.40 0067  02.08.2006

@<TRIPOS>MOLECULE
ASD02030736
  35   36    0    0    0
SMALL
NO_CHARGES


@<TRIPOS>ATOM
   1 N1            -0.0169     1.3957     0.0097 N.2     
   2 N2             0.0021    -0.0041     0.0020 N.am    
   3 C3             1.1646    -0.6797    -0.0123 C.2     
   4 N4             2.3448    -0.0325    -0.0200 N.am    
   5 C5             2.3757     1.3164    -0.0131 C.2     
   6 C6             1.1074     2.0610     0.0026 C.2     
   7 O7             1.1494    -1.8958    -0.0178 O.2     
   8 O8             3.4386     1.9089    -0.0192 O.2     
   9 O9             1.1051     3.4197     0.0094 O.3     
  10 C10           -1.2627    -0.7434     0.0101 C.3     
  11 C11           -1.6892    -1.0085     1.4554 C.3     
  12 C12           -2.9902    -1.7690     1.4637 C.ar    
  13 C13           -2.9815    -3.1516     1.4562 C.ar    
  14 C14           -4.1727    -3.8511     1.4638 C.ar    
  15 C15           -5.3785    -3.1651     1.4790 C.ar    
  16 C16           -5.3845    -1.7778     1.4865 C.ar    
  17 C17           -4.1905    -1.0830     1.4845 C.ar    
  18 O18           -6.5517    -3.8509     1.4861 O.3     
  19 C19           -7.7542    -3.0791     1.5017 C.3     
  20 C20           -8.9626    -4.0176     1.5077 C.3     
  21 H21            3.1737    -0.5362    -0.0303 H       
  22 H22            0.2211     3.8114     0.0197 H       
  23 H23           -2.0303    -0.1556    -0.4933 H       
  24 H24           -1.1322    -1.6923    -0.5101 H       
  25 H25           -0.9215    -1.5962     1.9587 H       
  26 H26           -1.8197    -0.0596     1.9756 H       
  27 H27           -2.0425    -3.6852     1.4440 H       
  28 H28           -4.1654    -4.9310     1.4576 H       
  29 H29           -6.3219    -1.2415     1.4983 H       
  30 H30           -4.1946    -0.0031     1.4952 H       
  31 H31           -7.7741    -2.4555     2.3955 H       
  32 H32           -7.7908    -2.4453     0.6156 H       
  33 H33           -9.8798    -3.4289     1.5196 H       
  34 H34           -8.9427    -4.6412     0.6139 H       
  35 H35           -8.9260    -4.6513     2.3938 H       
@<TRIPOS>BOND
   1    1    2 1
   2    1    6 2
   3    2    3 am
   4    2   10 1
   5    3    4 am
   6    3    7 2
   7    4    5 am
   8    4   21 1
   9    5    6 1
  10    5    8 2
  11    6    9 1
  12    9   22 1
  13   10   11 1
  14   10   23 1
  15   10   24 1
  16   11   12 1
  17   11   25 1
  18   11   26 1
  19   12   13 ar
  20   12   17 ar
  21   13   14 ar
  22   13   27 1
  23   14   15 ar
  24   14   28 1
  25   15   16 ar
  26   15   18 1
  27   16   17 ar
  28   16   29 1
  29   17   30 1
  30   18   19 1
  31   19   20 1
  32   19   31 1
  33   19   32 1
  34   20   33 1
  35   20   34 1
  36   20   35 1

#	End of record

