#	Name: ASD02198595
#	Creating user name:	WinNT
#	Creation time:	15. 06. 2019 20:19

#	Modifying user name:	WinNT
#	Modification time:	15. 06. 2019 20:19

#	Program:	/corina/corina34_cracker 3.40 0067  02.08.2006

@<TRIPOS>MOLECULE
ASD02198595
  43   46    0    0    0
SMALL
NO_CHARGES


@<TRIPOS>ATOM
   1 C1             0.1190     2.1573     0.0416 C.2     
   2 C2            -0.1085     0.8726     0.4133 C.2     
   3 N3             0.9119    -0.0078     0.5253 N.pl3   
   4 N4             2.1350     0.2991     0.2952 N.2     
   5 C5             2.4945     1.5098    -0.0726 C.2     
   6 C6             1.4555     2.5418    -0.2235 C.2     
   7 C7             0.6178    -1.3194     0.9123 C.ar    
   8 C8             1.2139    -1.8616     2.0437 C.ar    
   9 C9             0.9210    -3.1568     2.4233 C.ar    
  10 C10            0.0354    -3.9137     1.6784 C.ar    
  11 C11           -0.5596    -3.3771     0.5510 C.ar    
  12 C12           -0.2756    -2.0809     0.1691 C.ar    
  13 C13            3.9138     1.8280    -0.3290 C.2     
  14 N14            4.4343     2.3475    -1.4809 N.pl3   
  15 N15            5.8150     2.4932    -1.2975 N.2     
  16 C16            6.1253     2.0834    -0.0934 C.2     
  17 C17            4.9615     1.6626     0.5502 C.2     
  18 C18            3.7157     2.6751    -2.6377 C.ar    
  19 C19            2.7314     1.8177    -3.1115 C.ar    
  20 O20            1.7348     3.6818    -0.5631 O.2     
  21 C21            3.9821     3.8606    -3.3100 C.ar    
  22 C22            3.2718     4.1808    -4.4504 C.ar    
  23 C23            2.2962     3.3222    -4.9229 C.ar    
  24 C24            2.0246     2.1436    -4.2525 C.ar    
  25 S25            2.3430    -0.8982     2.9933 S.o     
  26 O26            2.3579    -1.5667     4.2471 O.2     
  27 C27            3.9237    -1.1684     2.1452 C.3     
  28 H28           -0.6934     2.8626    -0.0534 H       
  29 H29           -1.1174     0.5489     0.6227 H       
  30 H30            1.3844    -3.5791     3.3027 H       
  31 H31           -0.1919    -4.9263     1.9774 H       
  32 H32           -1.2506    -3.9711    -0.0288 H       
  33 H33           -0.7406    -1.6625    -0.7113 H       
  34 H34            7.1177     2.0762     0.3326 H       
  35 H35            4.8947     1.2717     1.5548 H       
  36 H36            2.5191     0.8969    -2.5886 H       
  37 H37            4.7437     4.5318    -2.9412 H       
  38 H38            3.4783     5.1028    -4.9734 H       
  39 H39            1.7419     3.5749    -5.8147 H       
  40 H40            1.2623     1.4749    -4.6242 H       
  41 H41            3.8721    -0.7519     1.1393 H       
  42 H42            4.7227    -0.6778     2.7011 H       
  43 H43            4.1259    -2.2378     2.0858 H       
@<TRIPOS>BOND
   1    1    2 2
   2    1    6 1
   3    1   28 1
   4    2    3 1
   5    2   29 1
   6    3    4 1
   7    3    7 1
   8    4    5 2
   9    5    6 1
  10    5   13 1
  11    6   20 2
  12    7    8 ar
  13    7   12 ar
  14    8    9 ar
  15    8   25 1
  16    9   10 ar
  17    9   30 1
  18   10   11 ar
  19   10   31 1
  20   11   12 ar
  21   11   32 1
  22   12   33 1
  23   13   14 1
  24   13   17 2
  25   14   15 1
  26   14   18 1
  27   15   16 2
  28   16   17 1
  29   16   34 1
  30   17   35 1
  31   18   21 ar
  32   18   19 ar
  33   19   24 ar
  34   19   36 1
  35   21   22 ar
  36   21   37 1
  37   22   23 ar
  38   22   38 1
  39   23   24 ar
  40   23   39 1
  41   24   40 1
  42   25   26 2
  43   25   27 1
  44   27   41 1
  45   27   42 1
  46   27   43 1

#	End of record

