#	Name: ASD01148738
#	Creating user name:	WinNT
#	Creation time:	15. 06. 2019 19:03

#	Modifying user name:	WinNT
#	Modification time:	15. 06. 2019 19:03

#	Program:	/corina/corina34_cracker 3.40 0067  02.08.2006

@<TRIPOS>MOLECULE
ASD01148738
  41   43    0    0    0
SMALL
NO_CHARGES


@<TRIPOS>ATOM
   1 N1            -0.0196     1.3333     0.0728 N.pl3   
   2 C2             0.0064     0.0002    -0.1171 C.2     
   3 C3             1.3273    -0.4109    -0.1527 C.2     
   4 C4             2.1360     0.7977     0.0339 C.2     
   5 C5             1.2601     1.8264     0.1655 C.2     
   6 C6             1.8185    -1.7783    -0.3393 C.2     
   7 O7             3.0119    -1.9981    -0.3499 O.2     
   8 C8            -1.1986    -0.8925    -0.2651 C.3     
   9 C9            -1.1841     2.1075     0.1577 C.ar    
  10 C10           -2.0323     1.9710     1.2484 C.ar    
  11 C11           -3.1797     2.7356     1.3292 C.ar    
  12 C12           -3.4843     3.6361     0.3250 C.ar    
  13 C13           -2.6417     3.7741    -0.7628 C.ar    
  14 C14           -1.4895     3.0170    -0.8461 C.ar    
  15 S15           -4.9492     4.6094     0.4314 S.o2    
  16 O16           -5.2704     4.9081    -0.9202 O.2     
  17 O17           -5.8259     3.8359     1.2390 O.2     
  18 C18           -4.4327     6.1103     1.3096 C.3     
  19 C19            1.6232     3.2449     0.3734 C.ar    
  20 C20            0.6997     4.1298     0.9314 C.ar    
  21 C21            1.0440     5.4518     1.1229 C.ar    
  22 C22            2.3031     5.9013     0.7625 C.ar    
  23 C23            3.2235     5.0280     0.2080 C.ar    
  24 C24            2.8926     3.7024     0.0175 C.ar    
  25 Cl25           2.7293     7.5664     1.0065 Cl      
  26 H26            3.2140     0.8576     0.0613 H       
  27 H27            1.1186    -2.5907    -0.4675 H       
  28 H28           -1.4718    -0.9625    -1.3179 H       
  29 H29           -0.9637    -1.8862     0.1162 H       
  30 H30           -2.0320    -0.4744     0.2995 H       
  31 H31           -1.7954     1.2673     2.0327 H       
  32 H32           -3.8398     2.6299     2.1774 H       
  33 H33           -2.8825     4.4780    -1.5458 H       
  34 H34           -0.8292     3.1289    -1.6934 H       
  35 H35           -3.6506     6.6131     0.7408 H       
  36 H36           -5.2870     6.7780     1.4213 H       
  37 H37           -4.0503     5.8416     2.2943 H       
  38 H38           -0.2828     3.7804     1.2125 H       
  39 H39            0.3300     6.1376     1.5544 H       
  40 H40            4.2039     5.3844    -0.0718 H       
  41 H41            3.6130     3.0211    -0.4107 H       
@<TRIPOS>BOND
   1    1    2 1
   2    1    5 1
   3    1    9 1
   4    2    3 2
   5    2    8 1
   6    3    4 1
   7    3    6 1
   8    4    5 2
   9    4   26 1
  10    5   19 1
  11    6    7 2
  12    6   27 1
  13    8   28 1
  14    8   29 1
  15    8   30 1
  16    9   10 ar
  17    9   14 ar
  18   10   11 ar
  19   10   31 1
  20   11   12 ar
  21   11   32 1
  22   12   13 ar
  23   12   15 1
  24   13   14 ar
  25   13   33 1
  26   14   34 1
  27   15   16 2
  28   15   17 2
  29   15   18 1
  30   18   35 1
  31   18   36 1
  32   18   37 1
  33   19   20 ar
  34   19   24 ar
  35   20   21 ar
  36   20   38 1
  37   21   22 ar
  38   21   39 1
  39   22   23 ar
  40   22   25 1
  41   23   24 ar
  42   23   40 1
  43   24   41 1

#	End of record

