#	Name: ASD00842805
#	Creating user name:	WinNT
#	Creation time:	15. 06. 2019 18:45

#	Modifying user name:	WinNT
#	Modification time:	15. 06. 2019 18:45

#	Program:	/corina/corina34_cracker 3.40 0067  02.08.2006

@<TRIPOS>MOLECULE
ASD00842805
  86   91    0    0    0
SMALL
NO_CHARGES


@<TRIPOS>ATOM
   1 N1            -0.0051     1.3211     0.0355 N.ar    
   2 C2             0.0089    -0.0012     0.0186 C.ar    
   3 C3             1.2116    -0.6961    -0.0015 C.ar    
   4 C4             2.3994     0.0138    -0.0035 C.ar    
   5 C5             2.3418     1.4008     0.0148 C.ar    
   6 C6             1.1109     2.0254     0.0341 C.ar    
   7 C7             1.2227    -2.2030    -0.0203 C.3     
   8 C8             0.4753    -2.7238    -1.2294 C.2     
   9 N9             2.5989    -2.7050    -0.0122 N.am    
  10 C10            3.4467    -2.3635    -1.0028 C.2     
  11 N11            4.7402    -2.7372    -0.9415 N.am    
  12 O12            3.0445    -1.7184    -1.9517 O.2     
  13 C13            5.2676    -3.4159     0.2500 C.3     
  14 C14            6.4984    -2.6520     0.7484 C.3     
  15 C15            7.5064    -2.5152    -0.3949 C.3     
  16 C16            6.8759    -1.7204    -1.5408 C.3     
  17 C17            5.6481    -2.4789    -2.0674 C.3     
  18 N18            8.7022    -1.8120     0.0884 N.3     
  19 C19            9.7417    -1.7661    -0.9494 C.3     
  20 C20           10.9363    -0.9588    -0.4358 C.3     
  21 N21           11.4506    -1.5783     0.7936 N.3     
  22 C22           10.4111    -1.6242     1.8314 C.3     
  23 C23            9.2165    -2.4314     1.3178 C.3     
  24 C24           12.6463    -0.8751     1.2769 C.3     
  25 O25            0.7556    -2.5211    -2.3919 O.2     
  26 N26           -0.5572    -3.4524    -0.7728 N.am    
  27 C27            0.4484    -2.7529     1.1556 C.ar    
  28 C28           -0.6018    -3.4897     0.6218 C.ar    
  29 C29            0.6133    -2.6432     2.5179 C.ar    
  30 C30           -0.2747    -3.2723     3.3743 C.ar    
  31 C31           -1.3264    -4.0103     2.8547 C.ar    
  32 C32           -1.4923    -4.1206     1.4874 C.ar    
  33 Cl33          -0.0708    -3.1376     5.0930 Cl      
  34 F34           -2.1935    -4.6246     3.6890 F       
  35 C35           -1.0276    -5.8359    -2.0659 C.ar    
  36 C36           -1.3611    -6.8797    -1.2227 C.ar    
  37 C37           -0.2101    -6.0606    -3.1582 C.ar    
  38 C38            0.2755    -7.3291    -3.4096 C.ar    
  39 C39           -0.0576    -8.3781    -2.5650 C.ar    
  40 C40           -0.8776    -8.1500    -1.4695 C.ar    
  41 O41            0.4185    -9.6271    -2.8105 O.3     
  42 H42           -1.9997    -6.7016    -0.3702 H       
  43 C43            0.0345   -10.6585    -1.8990 C.3     
  44 S44           -1.6513    -4.2181    -1.7521 S.o2    
  45 O45           -2.8323    -4.3861    -0.9799 O.2     
  46 O46           -1.6269    -3.5305    -2.9955 O.2     
  47 O47           -1.1626    -0.6856     0.0212 O.3     
  48 C48           -2.3649     0.0864     0.0426 C.3     
  49 C49           -3.5735    -0.8519     0.0424 C.3     
  50 F50           -3.5485    -1.6442    -1.1104 F       
  51 F51           -3.5264    -1.6733     1.1739 F       
  52 H52            3.3496    -0.4994    -0.0185 H       
  53 H53            3.2502     1.9848     0.0141 H       
  54 H54            1.0606     3.1042     0.0480 H       
  55 H55            2.9001    -3.2832     0.7061 H       
  56 H56            4.5060    -3.4302     1.0297 H       
  57 H57            5.5504    -4.4370    -0.0062 H       
  58 H58            6.1982    -1.6611     1.0892 H       
  59 H59            6.9560    -3.1979     1.5735 H       
  60 H60            7.7875    -3.5060    -0.7518 H       
  61 H61            6.5721    -0.7384    -1.1784 H       
  62 H62            7.6022    -1.6033    -2.3451 H       
  63 H63            5.9645    -3.4222    -2.5124 H       
  64 H64            5.1373    -1.8727    -2.8155 H       
  65 H65           10.0632    -2.7801    -1.1872 H       
  66 H66            9.3405    -1.2920    -1.8452 H       
  67 H67           11.7203    -0.9479    -1.1930 H       
  68 H68           10.6207     0.0627    -0.2238 H       
  69 H69           10.8123    -2.0983     2.7272 H       
  70 H70           10.0896    -0.6102     2.0692 H       
  71 H71            8.4325    -2.4424     2.0749 H       
  72 H72            9.5321    -3.4530     1.1058 H       
  73 H73           12.3961     0.1647     1.4877 H       
  74 H74           13.0062    -1.3540     2.1876 H       
  75 H75           13.4240    -0.9142     0.5141 H       
  76 H76            1.4345    -2.0674     2.9184 H       
  77 H77           -2.3142    -4.6969     1.0890 H       
  78 H78            0.0486    -5.2437    -3.8156 H       
  79 H79            0.9137    -7.5042    -4.2631 H       
  80 H80           -1.1387    -8.9651    -0.8107 H       
  81 H81            0.4816   -11.6028    -2.2096 H       
  82 H82            0.3801   -10.4050    -0.8969 H       
  83 H83           -1.0513   -10.7545    -1.8955 H       
  84 H84           -2.3844     0.7037     0.9408 H       
  85 H85           -2.4016     0.7263    -0.8390 H       
  86 H86           -4.4906    -0.2630     0.0587 H       
@<TRIPOS>BOND
   1    1    2 ar
   2    1    6 ar
   3    2    3 ar
   4    2   47 1
   5    3    4 ar
   6    3    7 1
   7    4    5 ar
   8    4   52 1
   9    5    6 ar
  10    5   53 1
  11    6   54 1
  12    7    8 1
  13    7    9 1
  14    7   27 1
  15    8   25 2
  16    8   26 am
  17    9   10 am
  18    9   55 1
  19   10   11 am
  20   10   12 2
  21   11   13 1
  22   11   17 1
  23   13   14 1
  24   13   56 1
  25   13   57 1
  26   14   15 1
  27   14   58 1
  28   14   59 1
  29   15   16 1
  30   15   18 1
  31   15   60 1
  32   16   17 1
  33   16   61 1
  34   16   62 1
  35   17   63 1
  36   17   64 1
  37   18   19 1
  38   18   23 1
  39   19   20 1
  40   19   65 1
  41   19   66 1
  42   20   21 1
  43   20   67 1
  44   20   68 1
  45   21   22 1
  46   21   24 1
  47   22   23 1
  48   22   69 1
  49   22   70 1
  50   23   71 1
  51   23   72 1
  52   24   73 1
  53   24   74 1
  54   24   75 1
  55   26   44 am
  56   26   28 1
  57   27   28 ar
  58   27   29 ar
  59   28   32 ar
  60   29   30 ar
  61   29   76 1
  62   30   31 ar
  63   30   33 1
  64   31   32 ar
  65   31   34 1
  66   32   77 1
  67   35   36 ar
  68   35   37 ar
  69   35   44 1
  70   36   42 1
  71   36   40 ar
  72   37   38 ar
  73   37   78 1
  74   38   39 ar
  75   38   79 1
  76   39   40 ar
  77   39   41 1
  78   40   80 1
  79   41   43 1
  80   43   81 1
  81   43   82 1
  82   43   83 1
  83   44   45 2
  84   44   46 2
  85   47   48 1
  86   48   49 1
  87   48   84 1
  88   48   85 1
  89   49   50 1
  90   49   51 1
  91   49   86 1

#	End of record

