#	Name: ASD00990040
#	Creating user name:	WinNT
#	Creation time:	15. 06. 2019 18:54

#	Modifying user name:	WinNT
#	Modification time:	15. 06. 2019 18:54

#	Program:	/corina/corina34_cracker 3.40 0067  02.08.2006

@<TRIPOS>MOLECULE
ASD00990040
  30   29    0    0    0
SMALL
NO_CHARGES


@<TRIPOS>ATOM
   1 C1            -0.0170     1.4008     0.0097 C.ar    
   2 C2             0.0021    -0.0041     0.0020 C.ar    
   3 C3            -1.1927    -0.7111     0.0096 C.ar    
   4 C4            -2.3901    -0.0281     0.0247 C.ar    
   5 C5            -2.4084     1.3595     0.0324 C.ar    
   6 C6            -1.2427     2.0716     0.0301 C.ar    
   7 N7             1.2765     1.8139    -0.0004 N.2     
   8 C8             2.0658     0.7797    -0.0135 C.2     
   9 N9             1.3340    -0.3670    -0.0126 N.pl3   
  10 C10            3.5714     0.8430    -0.0275 C.3     
  11 N11            4.0424     0.9921    -1.4110 N.3     
  12 C12            5.5090     1.0574    -1.4637 C.3     
  13 C13           -3.7275     2.0880     0.0484 C.3     
  14 F14           -4.7734     1.1588     0.0529 F       
  15 F15           -3.8064     2.8846     1.1957 F       
  16 F16           -3.8273     2.8969    -1.0887 F       
  17 H17           -1.1841    -1.7910     0.0034 H       
  18 H18           -3.3204    -0.5768     0.0303 H       
  19 H19           -1.2684     3.1513     0.0364 H       
  20 H20            1.6832    -1.2719    -0.0208 H       
  21 H21            3.9048     1.6958     0.5637 H       
  22 H22            3.9776    -0.0749     0.3976 H       
  23 H23            3.6924     0.2470    -1.9944 H       
  24 H24            5.8558     1.9117    -0.8824 H       
  25 H25            5.9286     0.1410    -1.0485 H       
  26 H26            5.8308     1.1678    -2.4992 H       
  27 Cl27          10.9286     8.1513     6.1957 Cl      
  28 H28           10.9286     9.5213     6.1957 H       
  29 Cl29          15.9286    14.5213    11.1957 Cl      
  30 H30           15.9286    15.8913    11.1957 H       
@<TRIPOS>BOND
   1    1    2 ar
   2    1    7 1
   3    1    6 ar
   4    2    3 ar
   5    2    9 1
   6    3    4 ar
   7    3   17 1
   8    4    5 ar
   9    4   18 1
  10    5    6 ar
  11    5   13 1
  12    6   19 1
  13    7    8 2
  14    8    9 1
  15    8   10 1
  16    9   20 1
  17   10   11 1
  18   10   21 1
  19   10   22 1
  20   11   12 1
  21   11   23 1
  22   12   24 1
  23   12   25 1
  24   12   26 1
  25   13   14 1
  26   13   15 1
  27   13   16 1
  28   27   28 1
  29   29   30 1

#	End of record

