#	Name: ASD01816822
#	Creating user name:	WinNT
#	Creation time:	15. 06. 2019 19:36

#	Modifying user name:	WinNT
#	Modification time:	15. 06. 2019 19:36

#	Program:	/corina/corina34_cracker 3.40 0067  02.08.2006

@<TRIPOS>MOLECULE
ASD01816822
  52   55    0    0    0
SMALL
NO_CHARGES


@<TRIPOS>ATOM
   1 C1            -0.0168     1.3865     0.0097 C.ar    
   2 C2             0.0021    -0.0041     0.0020 C.ar    
   3 C3             1.1793    -0.6910    -0.0129 C.ar    
   4 C4             2.3973     0.0050    -0.0207 C.ar    
   5 C5             2.3965     1.4242    -0.0131 C.ar    
   6 C6             1.1578     2.1095     0.0023 C.ar    
   7 C7             3.6283    -0.6794    -0.0355 C.ar    
   8 C8             4.7766     0.0574    -0.0421 C.ar    
   9 C9             4.7060     1.4591    -0.0341 C.ar    
  10 N10            3.5477     2.0908    -0.0196 N.ar    
  11 C11            5.9604     2.2472    -0.0414 C.2     
  12 N12            5.9101     3.5940    -0.0338 N.am    
  13 O13            7.0347     1.6794    -0.0542 O.2     
  14 C14            7.1506     4.3734    -0.0410 C.3     
  15 C15            7.6382     4.5471    -1.4827 C.3     
  16 C16            6.8915     5.7546     0.5686 C.3     
  17 C17            8.1723     6.5890     0.4850 C.3     
  18 O18            8.5882     6.6856    -0.8787 O.3     
  19 C19            8.8902     5.4282    -1.4870 C.3     
  20 O20            6.5055     5.6080     1.9366 O.3     
  21 C21            3.6757    -2.1856    -0.0435 C.3     
  22 C22            3.5546    -2.6846    -1.4603 C.ar    
  23 C23            4.6837    -2.8781    -2.2323 C.ar    
  24 C24            2.3083    -2.9605    -2.0032 C.ar    
  25 C25            2.2443    -3.4173    -3.3099 C.ar    
  26 C26            3.4179    -3.5818    -4.0248 C.ar    
  27 N27            4.5864    -3.3141    -3.4734 N.ar    
  28 Cl28           3.3524    -4.1538    -5.6625 Cl      
  29 S29            1.1169     3.8710     0.0122 S.3     
  30 C30           -0.6595     4.2379     0.0310 C.3     
  31 H31           -0.9631     1.9069     0.0169 H       
  32 H32           -0.9308    -0.5483     0.0083 H       
  33 H33            1.1743    -1.7710    -0.0183 H       
  34 H34            5.7370    -0.4365    -0.0531 H       
  35 H35            5.0526     4.0473    -0.0235 H       
  36 H36            7.9114     3.8534     0.5411 H       
  37 H37            7.8778     3.5717    -1.9062 H       
  38 H38            6.8570     5.0213    -2.0768 H       
  39 H39            6.0953     6.2532     0.0159 H       
  40 H40            7.9819     7.5875     0.8785 H       
  41 H41            8.9568     6.1106     1.0713 H       
  42 H42            9.6841     4.9345    -0.9265 H       
  43 H43            9.2169     5.5905    -2.5141 H       
  44 H44            6.3254     6.4449     2.3863 H       
  45 H45            4.6221    -2.5216     0.3804 H       
  46 H46            2.8513    -2.5783     0.5517 H       
  47 H47            5.6577    -2.6696    -1.8148 H       
  48 H48            1.4091    -2.8230    -1.4211 H       
  49 H49            1.2909    -3.6423    -3.7645 H       
  50 H50           -0.8074     5.3178     0.0382 H       
  51 H51           -1.1277     3.8129    -0.8568 H       
  52 H52           -1.1108     3.8034     0.9230 H       
@<TRIPOS>BOND
   1    1    2 ar
   2    1    6 ar
   3    1   31 1
   4    2    3 ar
   5    2   32 1
   6    3    4 ar
   7    3   33 1
   8    4    5 ar
   9    4    7 ar
  10    5    6 ar
  11    5   10 ar
  12    6   29 1
  13    7    8 ar
  14    7   21 1
  15    8    9 ar
  16    8   34 1
  17    9   10 ar
  18    9   11 1
  19   11   12 am
  20   11   13 2
  21   12   14 1
  22   12   35 1
  23   14   15 1
  24   14   16 1
  25   14   36 1
  26   15   19 1
  27   15   37 1
  28   15   38 1
  29   16   17 1
  30   16   20 1
  31   16   39 1
  32   17   18 1
  33   17   40 1
  34   17   41 1
  35   18   19 1
  36   19   42 1
  37   19   43 1
  38   20   44 1
  39   21   22 1
  40   21   45 1
  41   21   46 1
  42   22   23 ar
  43   22   24 ar
  44   23   27 ar
  45   23   47 1
  46   24   25 ar
  47   24   48 1
  48   25   26 ar
  49   25   49 1
  50   26   27 ar
  51   26   28 1
  52   29   30 1
  53   30   50 1
  54   30   51 1
  55   30   52 1

#	End of record

