#	Name: ASD03930273
#	Creating user name:	WinNT
#	Creation time:	15. 06. 2019 20:47

#	Modifying user name:	WinNT
#	Modification time:	15. 06. 2019 20:47

#	Program:	/corina/corina34_cracker 3.40 0067  02.08.2006

@<TRIPOS>MOLECULE
ASD03930273
  49   53    0    0    0
SMALL
NO_CHARGES


@<TRIPOS>ATOM
   1 C1            -0.0171     1.4119     0.0098 C.ar    
   2 C2             0.0021    -0.0041     0.0020 C.ar    
   3 C3            -1.1810    -0.7280     0.0084 C.ar    
   4 C4            -2.4003    -0.0512     0.0226 C.ar    
   5 C5            -2.4190     1.3647     0.0304 C.ar    
   6 C6            -1.2355     2.0887     0.0193 C.ar    
   7 N7             1.1619     2.0854     0.0022 N.2     
   8 C8             2.3016     1.4650    -0.0120 C.2     
   9 N9             2.4168     0.1106    -0.0208 N.am    
  10 C10            1.3153    -0.6752    -0.0141 C.2     
  11 N11           -3.5750    -0.7314     0.0286 N.2     
  12 N12           -4.7091    -0.1314     0.0413 N.2     
  13 N13           -4.8343     1.2600     0.0499 N.am    
  14 C14           -3.7294     2.0419     0.0450 C.2     
  15 O15           -3.8138     3.2559     0.0528 O.2     
  16 C16           -6.1644     1.8741     0.0638 C.3     
  17 C17           -6.9396     1.4400    -1.1817 C.3     
  18 C18           -6.9198     1.4262     1.3167 C.3     
  19 N19           -6.2800     1.9710    -2.3772 N.pl3   
  20 N20           -5.3570     1.3733    -3.0494 N.2     
  21 C21           -5.0149     2.1529    -4.0457 C.2     
  22 N22           -5.7662     3.2504    -3.9546 N.2     
  23 N23           -6.5336     3.1073    -2.9277 N.2     
  24 O24            1.4048    -1.8886    -0.0218 O.2     
  25 C25            3.7464    -0.5042    -0.0377 C.3     
  26 C26            4.4994    -0.0566    -1.2921 C.3     
  27 C27            4.5246    -0.0706     1.2062 C.3     
  28 N28            3.8180    -0.5739    -2.4813 N.pl3   
  29 N29            2.8834     0.0316    -3.1301 N.2     
  30 C30            2.5229    -0.7366    -4.1287 C.2     
  31 N31            3.2750    -1.8355    -4.0634 N.2     
  32 N32            4.0609    -1.7041    -3.0489 N.2     
  33 H33           -1.1582    -1.8077     0.0020 H       
  34 H34           -1.2581     3.1684     0.0254 H       
  35 H35            3.2058     2.0556    -0.0175 H       
  36 H36           -6.0634     2.9594     0.0690 H       
  37 H37           -6.9640     0.3515    -1.2334 H       
  38 H38           -7.9583     1.8241    -1.1279 H       
  39 H39           -7.0208     0.3409     1.3115 H       
  40 H40           -6.3675     1.7355     2.2040 H       
  41 H41           -7.9094     1.8831     1.3270 H       
  42 H42           -4.2673     1.9458    -4.7970 H       
  43 H43            3.6448    -1.5894    -0.0428 H       
  44 H44            4.5235     1.0324    -1.3322 H       
  45 H45            5.5186    -0.4417    -1.2609 H       
  46 H46            3.9882    -0.3895     2.0999 H       
  47 H47            5.5139    -0.5280     1.1936 H       
  48 H48            4.6262     1.0147     1.2113 H       
  49 H49            1.7619    -0.5208    -4.8640 H       
@<TRIPOS>BOND
   1    1    2 ar
   2    1    7 1
   3    1    6 ar
   4    2    3 ar
   5    2   10 1
   6    3    4 ar
   7    3   33 1
   8    4    5 ar
   9    4   11 1
  10    5    6 ar
  11    5   14 1
  12    6   34 1
  13    7    8 2
  14    8    9 1
  15    8   35 1
  16    9   10 am
  17    9   25 1
  18   10   24 2
  19   11   12 2
  20   12   13 1
  21   13   14 am
  22   13   16 1
  23   14   15 2
  24   16   17 1
  25   16   18 1
  26   16   36 1
  27   17   19 1
  28   17   37 1
  29   17   38 1
  30   18   39 1
  31   18   40 1
  32   18   41 1
  33   19   20 1
  34   19   23 1
  35   20   21 2
  36   21   22 1
  37   21   42 1
  38   22   23 2
  39   25   26 1
  40   25   27 1
  41   25   43 1
  42   26   28 1
  43   26   44 1
  44   26   45 1
  45   27   46 1
  46   27   47 1
  47   27   48 1
  48   28   29 1
  49   28   32 1
  50   29   30 2
  51   30   31 1
  52   30   49 1
  53   31   32 2

#	End of record

