#	Name: ASD01900905
#	Creating user name:	WinNT
#	Creation time:	15. 06. 2019 19:52

#	Modifying user name:	WinNT
#	Modification time:	15. 06. 2019 19:52

#	Program:	/corina/corina34_cracker 3.40 0067  02.08.2006

@<TRIPOS>MOLECULE
ASD01900905
  41   43    0    0    0
SMALL
NO_CHARGES


@<TRIPOS>ATOM
   1 C1            -0.2082     1.2330    -0.4968 C.ar    
   2 C2            -0.2595    -0.1153    -0.8446 C.ar    
   3 C3             0.9210    -0.8377    -0.9147 C.ar    
   4 C4             2.1124    -0.1865    -0.6344 C.ar    
   5 C5             2.0889     1.1566    -0.2951 C.ar    
   6 N6             0.9540     1.8187    -0.2359 N.ar    
   7 C7            -1.4603     2.0207    -0.4234 C.2     
   8 O8            -2.5267     1.4907    -0.6661 O.2     
   9 N9            -1.4171     3.3252    -0.0875 N.am    
  10 S10           -2.6832     5.7206     0.3930 S.3     
  11 C11           -2.5912     4.0638    -0.0187 C.2     
  12 N12           -3.7770     3.5974    -0.2582 N.2     
  13 C13           -4.7850     4.4420    -0.1463 C.2     
  14 C14           -4.4344     5.6810     0.2044 C.2     
  15 C15           -6.2159     4.0399    -0.3948 C.3     
  16 O16           -6.8123     3.6180     0.8333 O.3     
  17 S17           -5.5314     7.0400     0.4380 S.o2    
  18 O18           -6.7242     6.4465     0.9323 O.2     
  19 O19           -4.7883     7.9584     1.2277 O.2     
  20 C20           -5.7937     7.7019    -1.2304 C.3     
  21 C21           -6.7269     8.8832    -1.1612 C.ar    
  22 C22           -6.2180    10.1585    -0.9863 C.ar    
  23 C23           -7.0764    11.2432    -0.9228 C.ar    
  24 C24           -8.4408    11.0528    -1.0340 C.ar    
  25 C25           -8.9500     9.7799    -1.2087 C.ar    
  26 C26           -8.0931     8.6944    -1.2782 C.ar    
  27 F27           -8.5908     7.4509    -1.4549 F       
  28 F28           -4.8843    10.3448    -0.8772 F       
  29 H29           -1.2058    -0.5907    -1.0562 H       
  30 H30            0.9131    -1.8842    -1.1813 H       
  31 H31            3.0497    -0.7211    -0.6798 H       
  32 H32            3.0153     1.6669    -0.0762 H       
  33 H33           -0.5660     3.7482     0.1062 H       
  34 H34           -6.7684     4.8908    -0.7935 H       
  35 H35           -6.2435     3.2202    -1.1127 H       
  36 H36           -7.7358     3.3441     0.7483 H       
  37 H37           -4.8387     8.0174    -1.6505 H       
  38 H38           -6.2315     6.9296    -1.8630 H       
  39 H39           -6.6796    12.2383    -0.7860 H       
  40 H40           -9.1095    11.8994    -0.9840 H       
  41 H41          -10.0164     9.6323    -1.2951 H       
@<TRIPOS>BOND
   1    1    2 ar
   2    1    6 ar
   3    1    7 1
   4    2    3 ar
   5    2   29 1
   6    3    4 ar
   7    3   30 1
   8    4    5 ar
   9    4   31 1
  10    5    6 ar
  11    5   32 1
  12    7    8 2
  13    7    9 am
  14    9   11 1
  15    9   33 1
  16   10   11 1
  17   10   14 1
  18   11   12 2
  19   12   13 1
  20   13   14 2
  21   13   15 1
  22   14   17 1
  23   15   16 1
  24   15   34 1
  25   15   35 1
  26   16   36 1
  27   17   18 2
  28   17   19 2
  29   17   20 1
  30   20   21 1
  31   20   37 1
  32   20   38 1
  33   21   22 ar
  34   21   26 ar
  35   22   23 ar
  36   22   28 1
  37   23   24 ar
  38   23   39 1
  39   24   25 ar
  40   24   40 1
  41   25   26 ar
  42   25   41 1
  43   26   27 1

#	End of record

