#	Name: ASD01915404
#	Creating user name:	WinNT
#	Creation time:	15. 06. 2019 20:05

#	Modifying user name:	WinNT
#	Modification time:	15. 06. 2019 20:05

#	Program:	/corina/corina34_cracker 3.40 0067  02.08.2006

@<TRIPOS>MOLECULE
ASD01915404
  39   41    0    0    0
SMALL
NO_CHARGES


@<TRIPOS>ATOM
   1 C1             0.0196     1.4342     0.0189 C.ar    
   2 C2             1.2689     2.0219     0.0130 C.ar    
   3 N3             2.3632     1.2850    -0.0042 N.ar    
   4 C4             2.3094    -0.0375    -0.0165 C.ar    
   5 C5             1.0848    -0.6963    -0.0115 C.ar    
   6 C6            -0.0804     0.0494     0.0065 C.ar    
   7 N7             3.4905    -0.7761    -0.0350 N.am    
   8 C8             4.6772    -0.1468    -0.1447 C.2     
   9 C9             5.9334    -0.9175    -0.0495 C.ar    
  10 O10            4.7137     1.0554    -0.3220 O.2     
  11 C11            5.8901    -2.3007     0.1546 C.ar    
  12 C12            7.0567    -3.0264     0.2444 C.ar    
  13 C13            8.2899    -2.3871     0.1331 C.ar    
  14 C14            8.3425    -0.9944    -0.0725 C.ar    
  15 C15            7.1601    -0.2663    -0.1688 C.ar    
  16 C16            9.5424    -3.1699     0.2311 C.ar    
  17 C17            9.7340    -4.0540     1.2935 C.ar    
  18 C18           10.9027    -4.7809     1.3803 C.ar    
  19 C19           11.8860    -4.6345     0.4145 C.ar    
  20 C20           11.7007    -3.7573    -0.6425 C.ar    
  21 C21           10.5330    -3.0304    -0.7417 C.ar    
  22 C22            1.3842     3.5244     0.0259 C.3     
  23 F23           13.0292    -5.3489     0.5040 F       
  24 C24            9.6066    -0.3317    -0.1877 C.1     
  25 N25           10.6095     0.1941    -0.2791 N.1     
  26 H26           -0.8707     2.0453     0.0375 H       
  27 H27            1.0438    -1.7755    -0.0219 H       
  28 H28           -1.0458    -0.4347     0.0111 H       
  29 H29            3.4587    -1.7433     0.0311 H       
  30 H30            4.9373    -2.8015     0.2423 H       
  31 H31            7.0159    -4.0941     0.4020 H       
  32 H32            7.1931     0.8016    -0.3267 H       
  33 H33            8.9686    -4.1685     2.0467 H       
  34 H34           11.0521    -5.4652     2.2024 H       
  35 H35           12.4702    -3.6462    -1.3921 H       
  36 H36           10.3893    -2.3475    -1.5659 H       
  37 H37            1.4213     3.8771     1.0566 H       
  38 H38            2.2946     3.8235    -0.4934 H       
  39 H39            0.5200     3.9594    -0.4760 H       
@<TRIPOS>BOND
   1    1    2 ar
   2    1    6 ar
   3    1   26 1
   4    2    3 ar
   5    2   22 1
   6    3    4 ar
   7    4    5 ar
   8    4    7 1
   9    5    6 ar
  10    5   27 1
  11    6   28 1
  12    7    8 am
  13    7   29 1
  14    8    9 1
  15    8   10 2
  16    9   11 ar
  17    9   15 ar
  18   11   12 ar
  19   11   30 1
  20   12   13 ar
  21   12   31 1
  22   13   14 ar
  23   13   16 1
  24   14   15 ar
  25   14   24 1
  26   15   32 1
  27   16   17 ar
  28   16   21 ar
  29   17   18 ar
  30   17   33 1
  31   18   19 ar
  32   18   34 1
  33   19   20 ar
  34   19   23 1
  35   20   21 ar
  36   20   35 1
  37   21   36 1
  38   22   37 1
  39   22   38 1
  40   22   39 1
  41   24   25 3

#	End of record

