#	Name: ASD08170228
#	Creating user name:	WinNT
#	Creation time:	15. 06. 2019 21:17

#	Modifying user name:	WinNT
#	Modification time:	15. 06. 2019 21:17

#	Program:	/corina/corina34_cracker 3.40 0067  02.08.2006

@<TRIPOS>MOLECULE
ASD08170228
  49   50    0    0    0
SMALL
NO_CHARGES


@<TRIPOS>ATOM
   1 N1            -0.0150     1.2583     0.0090 N.2     
   2 N2             0.0021    -0.0041     0.0020 N.2     
   3 C3             1.1271     1.8769     0.0014 C.2     
   4 S4             2.3826     0.7116    -0.0169 S.3     
   5 C5             1.1681    -0.5677    -0.0121 C.2     
   6 C6             1.4387    -2.0502    -0.0217 C.3     
   7 C7             1.5173    -2.5450    -1.4674 C.3     
   8 C8             2.1718    -6.2170    -3.4310 C.3     
   9 C9             2.2195    -6.5434    -4.9015 C.2     
  10 N10            3.2727    -6.5215    -5.6551 N.2     
  11 S11            0.8525    -7.0314    -5.9038 S.3     
  12 C12            1.9042    -7.1394    -7.2517 C.2     
  13 N13            3.1057    -6.8287    -6.8682 N.2     
  14 N14            1.5340    -7.5046    -8.5415 N.am    
  15 C15            2.4593    -7.5523    -9.5203 C.2     
  16 O16            3.6149    -7.2766    -9.2761 O.2     
  17 C17            2.0581    -7.9480   -10.9179 C.3     
  18 N18            1.3017     3.2566     0.0071 N.am    
  19 C19            1.0119    -6.9644   -11.4460 C.3     
  20 C20            0.2284     4.0717     0.0222 C.2     
  21 C21            0.4176     5.5667     0.0285 C.3     
  22 O22           -0.8897     3.6019     0.0309 O.2     
  23 C23            1.2096     5.9754     1.2721 C.3     
  24 C24            1.9004    -4.7224    -3.2489 C.3     
  25 N25           -0.8948     6.2264     0.0451 N.3     
  26 N26            3.2387    -7.9231   -11.7918 N.3     
  27 S27            1.8430    -4.3295    -1.4789 S.3     
  28 H28            2.3840    -2.2503     0.4827 H       
  29 H29            0.6331    -2.5700     0.4969 H       
  30 H30            0.5720    -2.3449    -1.9718 H       
  31 H31            2.3230    -2.0252    -1.9860 H       
  32 H32            1.3758    -6.7912    -2.9570 H       
  33 H33            3.1267    -6.4716    -2.9712 H       
  34 H34            0.6097    -7.7250    -8.7368 H       
  35 H35            1.6373    -8.9534   -10.9042 H       
  36 H36            2.1959     3.6323     0.0002 H       
  37 H37            0.1360    -6.9828   -10.7976 H       
  38 H38            1.4327    -5.9590   -11.4597 H       
  39 H39            0.7218    -7.2506   -12.4569 H       
  40 H40            0.9641     5.8675    -0.8654 H       
  41 H41            2.1835     5.4859     1.2597 H       
  42 H42            1.3465     7.0567     1.2766 H       
  43 H43            0.6631     5.6746     2.1660 H       
  44 H44            2.6965    -4.1481    -3.7229 H       
  45 H45            0.9455    -4.4678    -3.7088 H       
  46 H46           -1.4464     5.9144     0.8304 H       
  47 H47           -0.7949     7.2304     0.0496 H       
  48 H48            3.9698    -8.5163   -11.4288 H       
  49 H49            2.9957    -8.1850   -12.7354 H       
@<TRIPOS>BOND
   1    1    2 1
   2    1    3 2
   3    2    5 2
   4    3    4 1
   5    3   18 1
   6    4    5 1
   7    5    6 1
   8    6    7 1
   9    6   28 1
  10    6   29 1
  11    7   27 1
  12    7   30 1
  13    7   31 1
  14    8    9 1
  15    8   24 1
  16    8   32 1
  17    8   33 1
  18    9   10 2
  19    9   11 1
  20   10   13 1
  21   11   12 1
  22   12   13 2
  23   12   14 1
  24   14   15 am
  25   14   34 1
  26   15   16 2
  27   15   17 1
  28   17   19 1
  29   17   26 1
  30   17   35 1
  31   18   20 am
  32   18   36 1
  33   19   37 1
  34   19   38 1
  35   19   39 1
  36   20   21 1
  37   20   22 2
  38   21   23 1
  39   21   25 1
  40   21   40 1
  41   23   41 1
  42   23   42 1
  43   23   43 1
  44   24   27 1
  45   24   44 1
  46   24   45 1
  47   25   46 1
  48   25   47 1
  49   26   48 1
  50   26   49 1

#	End of record

