#	Name: ASD00170002
#	Creating user name:	WinNT
#	Creation time:	15. 06. 2019 18:31

#	Modifying user name:	WinNT
#	Modification time:	15. 06. 2019 18:31

#	Program:	/corina/corina34_cracker 3.40 0067  02.08.2006

@<TRIPOS>MOLECULE
ASD00170002
  56   59    0    0    0
SMALL
NO_CHARGES


@<TRIPOS>ATOM
   1 C1             0.4866     1.9042     0.7248 C.3     
   2 C2             5.3954     7.7152    -5.6312 C.ar    
   3 C3             4.8329     6.5129    -5.2574 C.ar    
   4 C4             5.6093     5.5566    -4.6004 C.ar    
   5 C5             6.9516     5.8242    -4.3253 C.ar    
   6 C6             7.5028     7.0303    -4.7035 C.ar    
   7 C7             6.7276     7.9753    -5.3552 C.ar    
   8 C8             5.0120     4.2653    -4.1970 C.2     
   9 C9             5.8536     3.2208    -3.6135 C.2     
  10 O10            3.8197     4.0715    -4.3504 O.2     
  11 Cl11           7.4286     9.4913    -5.8283 Cl      
  12 C12            6.0518     3.0521    -2.1893 C.2     
  13 C13            6.8533     2.0418    -1.8903 C.2     
  14 S14            7.4139     1.2353    -3.3440 S.3     
  15 C15            6.5380     2.2884    -4.3583 C.2     
  16 N16            6.5231     2.2197    -5.7367 N.pl3   
  17 C17            5.4107     3.9376    -1.1520 C.3     
  18 N18            4.0203     3.5145    -0.9387 N.3     
  19 C19            3.4360     4.1934     0.2264 C.3     
  20 C20            1.9671     3.7870     0.3668 C.3     
  21 N21            1.8771     2.3273     0.5115 N.3     
  22 C22            2.4614     1.6484    -0.6536 C.3     
  23 C23            3.9302     2.0549    -0.7939 C.3     
  24 C24            0.4161     0.3760     0.7461 C.3     
  25 C25           -1.0321    -0.0647     0.9683 C.3     
  26 C26           -1.5341     0.4877     2.3039 C.3     
  27 C27           -1.4636     2.0159     2.2825 C.3     
  28 C28           -0.0154     2.4566     2.0604 C.3     
  29 H29           -0.1372     2.2855    -0.0836 H       
  30 H30            4.7970     8.4540    -6.1435 H       
  31 H31            3.7940     6.3113    -5.4729 H       
  32 H32            7.5569     5.0883    -3.8170 H       
  33 H33            8.5410     7.2386    -4.4909 H       
  34 H34            7.1261     1.7531    -0.8860 H       
  35 H35            7.0976     1.5880    -6.1970 H       
  36 H36            5.9383     2.8031    -6.2451 H       
  37 H37            5.9625     3.8581    -0.2153 H       
  38 H38            5.4271     4.9716    -1.4966 H       
  39 H39            3.9805     3.9057     1.1258 H       
  40 H40            3.5032     5.2727     0.0899 H       
  41 H41            1.5396     4.2668     1.2471 H       
  42 H42            1.4171     4.0990    -0.5210 H       
  43 H43            2.3941     0.5691    -0.5170 H       
  44 H44            1.9169     1.9361    -1.5529 H       
  45 H45            4.3578     1.5751    -1.6743 H       
  46 H46            4.4803     1.7429     0.0939 H       
  47 H47            0.7738    -0.0175    -0.2053 H       
  48 H48            1.0400    -0.0052     1.5546 H       
  49 H49           -1.6559     0.3166     0.1599 H       
  50 H50           -1.0823    -1.1534     0.9835 H       
  51 H51           -2.5658     0.1738     2.4621 H       
  52 H52           -0.9102     0.1065     3.1123 H       
  53 H53           -2.0875     2.3972     1.4741 H       
  54 H54           -1.8212     2.4095     3.2340 H       
  55 H55            0.6085     2.0754     2.8688 H       
  56 H56            0.0348     3.5454     2.0452 H       
@<TRIPOS>BOND
   1    1   24 1
   2    1   21 1
   3    1   28 1
   4    1   29 1
   5    2    3 ar
   6    2    7 ar
   7    2   30 1
   8    3    4 ar
   9    3   31 1
  10    4    5 ar
  11    4    8 1
  12    5    6 ar
  13    5   32 1
  14    6    7 ar
  15    6   33 1
  16    7   11 1
  17    8    9 1
  18    8   10 2
  19    9   12 1
  20    9   15 2
  21   12   13 2
  22   12   17 1
  23   13   14 1
  24   13   34 1
  25   14   15 1
  26   15   16 1
  27   16   35 1
  28   16   36 1
  29   17   18 1
  30   17   37 1
  31   17   38 1
  32   18   19 1
  33   18   23 1
  34   19   20 1
  35   19   39 1
  36   19   40 1
  37   20   21 1
  38   20   41 1
  39   20   42 1
  40   21   22 1
  41   22   23 1
  42   22   43 1
  43   22   44 1
  44   23   45 1
  45   23   46 1
  46   24   25 1
  47   24   47 1
  48   24   48 1
  49   25   26 1
  50   25   49 1
  51   25   50 1
  52   26   27 1
  53   26   51 1
  54   26   52 1
  55   27   28 1
  56   27   53 1
  57   27   54 1
  58   28   55 1
  59   28   56 1

#	End of record

