#	Name: ASD00069132
#	Creating user name:	WinNT
#	Creation time:	15. 06. 2019 18:29

#	Modifying user name:	WinNT
#	Modification time:	15. 06. 2019 18:29

#	Program:	/corina/corina34_cracker 3.40 0067  02.08.2006

@<TRIPOS>MOLECULE
ASD00069132
  54   57    0    0    0
SMALL
NO_CHARGES


@<TRIPOS>ATOM
   1 C1            -0.0972     1.1981    -0.5382 C.2     
   2 N2             0.0007    -0.0058    -0.0196 N.2     
   3 C3             1.2451    -0.4623    -0.2085 C.2     
   4 C4             1.9522     0.5001    -0.8738 C.2     
   5 N5             1.1116     1.5384    -1.0796 N.pl3   
   6 C6            -1.3087     2.0381    -0.5412 C.2     
   7 O7            -1.2827     3.1411    -1.0532 O.2     
   8 N8            -2.4451     1.5838     0.0232 N.am    
   9 C9             1.4746    -3.9093     1.2939 C.ar    
  10 C10            0.9463    -2.6856     0.9035 C.ar    
  11 C11            1.7655    -1.7810     0.2284 C.ar    
  12 C12            3.0918    -2.1500    -0.0266 C.ar    
  13 C13            3.5388    -3.3833     0.3942 C.ar    
  14 N14            2.7361    -4.2161     1.0312 N.ar    
  15 N15            0.6724    -4.8196     1.9729 N.pl3   
  16 C16           -3.5612     2.4250     0.1263 C.ar    
  17 C17           -4.8470     1.8958     0.0209 C.ar    
  18 C18           -5.9489     2.7337     0.1242 C.ar    
  19 C19           -5.7680     4.0921     0.3316 C.ar    
  20 C20           -4.4904     4.6151     0.4360 C.ar    
  21 C21           -3.3893     3.7847     0.3391 C.ar    
  22 F22           -6.8405     4.9075     0.4317 F       
  23 F23           -7.1965     2.2256     0.0223 F       
  24 N24           -5.0262     0.5226    -0.1892 N.3     
  25 C25           -5.7968    -0.0810     0.9054 C.3     
  26 C26           -5.8482    -1.5990     0.7181 C.3     
  27 C27           -6.5016    -1.9204    -0.6288 C.3     
  28 C28           -5.7077    -1.2402    -1.7476 C.3     
  29 C29           -5.6604     0.2674    -1.4888 C.3     
  30 C30           -6.5010    -3.4345    -0.8492 C.3     
  31 N31           -7.2333    -3.7501    -2.0829 N.3     
  32 H32            2.9871     0.4419    -1.1774 H       
  33 H33            1.3261     2.3711    -1.5284 H       
  34 H34           -2.4905     0.6746     0.3581 H       
  35 H35           -0.0828    -2.4386     1.1189 H       
  36 H36            3.7562    -1.4763    -0.5471 H       
  37 H37            4.5608    -3.6734     0.1999 H       
  38 H38           -0.2510    -4.5986     2.1714 H       
  39 H39            1.0361    -5.6758     2.2479 H       
  40 H40           -4.3537     5.6742     0.5976 H       
  41 H41           -2.3942     4.1957     0.4251 H       
  42 H42           -5.3192     0.1515     1.8572 H       
  43 H43           -6.8103     0.3201     0.9003 H       
  44 H44           -4.8358    -2.0025     0.7370 H       
  45 H45           -6.4335    -2.0453     1.5222 H       
  46 H46           -7.5272    -1.5511    -0.6335 H       
  47 H47           -4.6931    -1.6380    -1.7675 H       
  48 H48           -6.1926    -1.4300    -2.7051 H       
  49 H49           -6.6745     0.6669    -1.4827 H       
  50 H50           -5.0837     0.7531    -2.2760 H       
  51 H51           -5.4737    -3.7886    -0.9357 H       
  52 H52           -6.9844    -3.9248    -0.0042 H       
  53 H53           -7.2471    -4.7449    -2.2507 H       
  54 H54           -8.1696    -3.3753    -2.0535 H       
@<TRIPOS>BOND
   1    1    2 2
   2    1    5 1
   3    1    6 1
   4    2    3 1
   5    3    4 2
   6    3   11 1
   7    4    5 1
   8    4   32 1
   9    5   33 1
  10    6    7 2
  11    6    8 am
  12    8   16 1
  13    8   34 1
  14    9   10 ar
  15    9   14 ar
  16    9   15 1
  17   10   11 ar
  18   10   35 1
  19   11   12 ar
  20   12   13 ar
  21   12   36 1
  22   13   14 ar
  23   13   37 1
  24   15   38 1
  25   15   39 1
  26   16   17 ar
  27   16   21 ar
  28   17   18 ar
  29   17   24 1
  30   18   19 ar
  31   18   23 1
  32   19   20 ar
  33   19   22 1
  34   20   21 ar
  35   20   40 1
  36   21   41 1
  37   24   25 1
  38   24   29 1
  39   25   26 1
  40   25   42 1
  41   25   43 1
  42   26   27 1
  43   26   44 1
  44   26   45 1
  45   27   28 1
  46   27   30 1
  47   27   46 1
  48   28   29 1
  49   28   47 1
  50   28   48 1
  51   29   49 1
  52   29   50 1
  53   30   31 1
  54   30   51 1
  55   30   52 1
  56   31   53 1
  57   31   54 1

#	End of record

