#	Name: ASD08150955
#	Creating user name:	WinNT
#	Creation time:	15. 06. 2019 21:16

#	Modifying user name:	WinNT
#	Modification time:	15. 06. 2019 21:16

#	Program:	/corina/corina34_cracker 3.40 0067  02.08.2006

@<TRIPOS>MOLECULE
ASD08150955
  58   62    0    0    0
SMALL
NO_CHARGES


@<TRIPOS>ATOM
   1 C1            -0.6092     1.5552    -0.9401 C.2     
   2 C2            -0.7043     0.0632    -1.1300 C.3     
   3 O3             0.4748     2.0990    -0.9432 O.2     
   4 N4            -1.7293     2.2858    -0.7722 N.am    
   5 N5            -2.6357     6.1479     0.6473 N.3     
   6 C6            -2.8663     5.9006    -0.7817 C.3     
   7 C7            -2.9460     4.3933    -1.0336 C.3     
   8 C8            -1.6369     3.7362    -0.5875 C.3     
   9 C9            -1.3960     4.0494     0.8918 C.3     
  10 C10           -1.3611     5.5667     1.0879 C.3     
  11 N11           -0.8754     7.9669    -0.5594 N.ar    
  12 C12           -0.0380     8.7907    -1.1412 C.ar    
  13 C13           -0.0576    10.1595    -0.8819 C.ar    
  14 C14           -0.9667    10.6733    -0.0017 C.ar    
  15 C15           -1.8644     9.7851     0.6205 C.ar    
  16 C16           -2.8268    10.2424     1.5363 C.ar    
  17 C17           -3.6821     9.3571     2.1216 C.ar    
  18 C18           -3.6189     7.9987     1.8261 C.ar    
  19 C19           -2.6886     7.5124     0.9336 C.ar    
  20 C20           -1.7888     8.4050     0.3112 C.ar    
  21 C21           -4.5795     7.0472     2.4916 C.3     
  22 C22           -3.9449     6.4915     3.7680 C.3     
  23 N23           -5.8151     7.7579     2.8300 N.pl3   
  24 N24           -8.5348     9.0147     3.5191 N.2     
  25 C25           -9.8131     9.0930     3.7498 C.2     
  26 N26          -10.3855     7.8623     3.6232 N.pl3   
  27 C27           -9.3900     6.9776     3.2939 C.ar    
  28 N28           -9.3377     5.6727     3.0476 N.ar    
  29 C29           -8.1951     5.0917     2.7480 C.ar    
  30 N30           -7.0577     5.7588     2.6773 N.ar    
  31 C31           -7.0117     7.0671     2.9072 C.ar    
  32 C32           -8.2064     7.7324     3.2305 C.ar    
  33 Cl33          -2.9260    11.9320     1.9223 Cl      
  34 H34           -0.6571    -0.4304    -0.1593 H       
  35 H35           -1.6484    -0.1817    -1.6166 H       
  36 H36            0.1238    -0.2774    -1.7515 H       
  37 H37           -2.5965     1.8514    -0.7737 H       
  38 H38           -3.8023     6.3696    -1.0850 H       
  39 H39           -2.0446     6.3226    -1.3605 H       
  40 H40           -3.7761     3.9728    -0.4659 H       
  41 H41           -3.1015     4.2097    -2.0967 H       
  42 H42           -0.8117     4.1273    -1.1827 H       
  43 H43           -2.2016     3.6235     1.4898 H       
  44 H44           -0.4440     3.6201     1.2043 H       
  45 H45           -0.5465     5.9903     0.5004 H       
  46 H46           -1.2040     5.7931     2.1425 H       
  47 H47            0.6864     8.3981    -1.8395 H       
  48 H48            0.6455    10.8135    -1.3762 H       
  49 H49           -0.9959    11.7317     0.2114 H       
  50 H50           -4.4195     9.7151     2.8247 H       
  51 H51           -4.8072     6.2261     1.8118 H       
  52 H52           -4.6397     5.8033     4.2494 H       
  53 H53           -3.0256     5.9627     3.5162 H       
  54 H54           -3.7172     7.3126     4.4478 H       
  55 H55           -5.7944     8.7127     3.0000 H       
  56 H56          -10.3424     9.9993     4.0047 H       
  57 H57          -11.3244     7.6508     3.7441 H       
  58 H58           -8.1874     4.0294     2.5535 H       
@<TRIPOS>BOND
   1    1    2 1
   2    1    3 2
   3    1    4 am
   4    2   34 1
   5    2   35 1
   6    2   36 1
   7    4    8 1
   8    4   37 1
   9    5    6 1
  10    5   10 1
  11    5   19 1
  12    6    7 1
  13    6   38 1
  14    6   39 1
  15    7    8 1
  16    7   40 1
  17    7   41 1
  18    8    9 1
  19    8   42 1
  20    9   10 1
  21    9   43 1
  22    9   44 1
  23   10   45 1
  24   10   46 1
  25   11   12 ar
  26   11   20 ar
  27   12   13 ar
  28   12   47 1
  29   13   14 ar
  30   13   48 1
  31   14   15 ar
  32   14   49 1
  33   15   16 ar
  34   15   20 ar
  35   16   17 ar
  36   16   33 1
  37   17   18 ar
  38   17   50 1
  39   18   19 ar
  40   18   21 1
  41   19   20 ar
  42   21   22 1
  43   21   23 1
  44   21   51 1
  45   22   52 1
  46   22   53 1
  47   22   54 1
  48   23   31 1
  49   23   55 1
  50   24   25 2
  51   24   32 1
  52   25   26 1
  53   25   56 1
  54   26   27 1
  55   26   57 1
  56   27   28 ar
  57   27   32 ar
  58   28   29 ar
  59   29   30 ar
  60   29   58 1
  61   30   31 ar
  62   31   32 ar

#	End of record

