#	Name: ASD07931873
#	Creating user name:	WinNT
#	Creation time:	15. 06. 2019 21:13

#	Modifying user name:	WinNT
#	Modification time:	15. 06. 2019 21:13

#	Program:	/corina/corina34_cracker 3.40 0067  02.08.2006

@<TRIPOS>MOLECULE
ASD07931873
  53   54    0    0    0
SMALL
NO_CHARGES


@<TRIPOS>ATOM
   1 C1            -0.0491     1.3224     0.5750 C.2     
   2 N2             0.0058    -0.0155     0.4221 N.am    
   3 O3             0.9775     1.9678     0.6521 O.2     
   4 O4            -1.2416     1.9445     0.6367 O.3     
   5 C5             1.3034    -0.6917     0.3488 C.3     
   6 C6             1.8089    -0.9798     1.7638 C.3     
   7 O7             0.1823    -2.8620     0.2310 O.3     
   8 C8             1.1501    -2.0080    -0.4159 C.3     
   9 C9             0.5329    -1.7574    -1.8155 C.3     
  10 C10           -0.1120    -3.1279    -2.1356 C.3     
  11 C11           -0.2790    -3.7978    -0.7579 C.3     
  12 O12            0.5042    -4.9916    -0.6999 O.3     
  13 C13            0.5588    -5.5885     0.5973 C.3     
  14 C14           -1.7311    -4.1222    -0.5185 C.ar    
  15 C15           -2.3418    -5.1313    -1.2398 C.ar    
  16 C16           -3.6734    -5.4289    -1.0211 C.ar    
  17 C17           -4.3955    -4.7170    -0.0795 C.ar    
  18 C18           -3.7839    -3.7078     0.6422 C.ar    
  19 C19           -2.4504    -3.4145     0.4261 C.ar    
  20 C20           -1.5552    -5.9065    -2.2652 C.3     
  21 F21           -2.4122    -6.7715    -2.9541 F       
  22 F22           -0.9644    -5.0174    -3.1695 F       
  23 F23           -0.5588    -6.6502    -1.6240 F       
  24 Cl24          -6.0686    -5.0899     0.1954 Cl      
  25 C25           -1.2248     3.3869     0.8022 C.3     
  26 C26           -0.4878     4.0269    -0.3760 C.3     
  27 C27           -2.6613     3.9115     0.8508 C.3     
  28 C28           -0.5077     3.7424     2.1062 C.3     
  29 H29           -0.8137    -0.5307     0.3605 H       
  30 H30            2.0179    -0.0518    -0.1690 H       
  31 H31            1.0944    -1.6198     2.2816 H       
  32 H32            2.7743    -1.4830     1.7093 H       
  33 H33            1.9181    -0.0421     2.3086 H       
  34 H34            2.1107    -2.5153    -0.5052 H       
  35 H35           -0.2223    -0.9726    -1.7727 H       
  36 H36            1.3063    -1.5119    -2.5433 H       
  37 H37           -1.0821    -2.9908    -2.6133 H       
  38 H38            0.5466    -3.7205    -2.7706 H       
  39 H39            1.0986    -6.5337     0.5399 H       
  40 H40            1.0736    -4.9173     1.2848 H       
  41 H41           -0.4541    -5.7698     0.9568 H       
  42 H42           -4.1505    -6.2167    -1.5851 H       
  43 H43           -4.3471    -3.1516     1.3769 H       
  44 H44           -1.9715    -2.6295     0.9927 H       
  45 H45           -0.9987     3.7737    -1.3049 H       
  46 H46           -0.4752     5.1097    -0.2518 H       
  47 H47            0.5356     3.6533    -0.4106 H       
  48 H48           -3.1863     3.4555     1.6902 H       
  49 H49           -2.6487     4.9943     0.9750 H       
  50 H50           -3.1722     3.6582    -0.0781 H       
  51 H51            0.5157     3.3687     2.0715 H       
  52 H52           -0.4951     4.8252     2.2304 H       
  53 H53           -1.0327     3.2865     2.9455 H       
@<TRIPOS>BOND
   1    1    2 am
   2    1    3 2
   3    1    4 1
   4    2    5 1
   5    2   29 1
   6    4   25 1
   7    5    6 1
   8    5    8 1
   9    5   30 1
  10    6   31 1
  11    6   32 1
  12    6   33 1
  13    7   11 1
  14    7    8 1
  15    8    9 1
  16    8   34 1
  17    9   10 1
  18    9   35 1
  19    9   36 1
  20   10   11 1
  21   10   37 1
  22   10   38 1
  23   11   12 1
  24   11   14 1
  25   12   13 1
  26   13   39 1
  27   13   40 1
  28   13   41 1
  29   14   15 ar
  30   14   19 ar
  31   15   16 ar
  32   15   20 1
  33   16   17 ar
  34   16   42 1
  35   17   18 ar
  36   17   24 1
  37   18   19 ar
  38   18   43 1
  39   19   44 1
  40   20   21 1
  41   20   22 1
  42   20   23 1
  43   25   26 1
  44   25   28 1
  45   25   27 1
  46   26   45 1
  47   26   46 1
  48   26   47 1
  49   27   48 1
  50   27   49 1
  51   27   50 1
  52   28   51 1
  53   28   52 1
  54   28   53 1

#	End of record

