#	Name: ASD09080024
#	Creating user name:	WinNT
#	Creation time:	15. 06. 2019 21:20

#	Modifying user name:	WinNT
#	Modification time:	15. 06. 2019 21:20

#	Program:	/corina/corina34_cracker 3.40 0067  02.08.2006

@<TRIPOS>MOLECULE
ASD09080024
  50   52    0    0    0
SMALL
NO_CHARGES


@<TRIPOS>ATOM
   1 C1            -0.0167     1.3772     0.0096 C.ar    
   2 C2             0.0021    -0.0041     0.0020 C.ar    
   3 C3            -1.1962    -0.7147     0.0101 C.ar    
   4 C4            -2.4082    -0.0277     0.0258 C.ar    
   5 C5            -2.4165     1.3537     0.0333 C.ar    
   6 C6            -1.2232     2.0552     0.0306 C.ar    
   7 Cl7            1.4756     2.2642     0.0001 Cl      
   8 Cl8           -3.9258     2.2111     0.0523 Cl      
   9 C9            -1.1817    -2.1986     0.0015 C.ar    
  10 C10           -2.3800    -2.9096     0.0096 C.ar    
  11 C11            0.0301    -2.8859    -0.0204 C.ar    
  12 C12            0.0377    -4.2660    -0.0283 C.ar    
  13 C13           -1.1547    -4.9669    -0.0144 C.ar    
  14 C14           -2.3607    -4.2896     0.0016 C.ar    
  15 C15           -1.1400    -6.4738    -0.0231 C.3     
  16 C16           -1.1135    -6.9918     1.4163 C.3     
  17 C17           -1.2242    -8.5178     1.4112 C.3     
  18 N18            0.1441    -6.5956     2.0548 N.am    
  19 C19           -1.1977    -9.0359     2.8506 C.3     
  20 O20           -2.4509    -8.9043     0.7884 O.3     
  21 C21           -1.4298   -10.5249     2.8529 C.2     
  22 O22           -0.5307   -11.3451     2.2865 O.3     
  23 C23            0.2107    -6.4759     3.3956 C.2     
  24 C24            1.4696    -6.0792     4.0348 C.2     
  25 O25           -0.7739    -6.6968     4.0758 O.2     
  26 O26            2.6288    -5.8059     3.4010 O.3     
  27 O27           -2.2250    -8.3925     3.6074 O.3     
  28 O28           -2.4251   -10.9804     3.3645 O.2     
  29 C29            1.6723    -5.9161     5.3752 C.2     
  30 C30            3.0133    -5.5344     5.5370 C.2     
  31 C31            3.5626    -5.4787     4.3036 C.2     
  32 H32            0.9441    -0.5322    -0.0105 H       
  33 H33           -3.3397    -0.5743     0.0318 H       
  34 H34           -1.2338     3.1351     0.0364 H       
  35 H35           -3.3222    -2.3818     0.0225 H       
  36 H36            0.9617    -2.3396    -0.0316 H       
  37 H37            0.9765    -4.7998    -0.0457 H       
  38 H38           -3.2888    -4.8418     0.0127 H       
  39 H39           -2.0339    -6.8430    -0.5257 H       
  40 H40           -0.2542    -6.8254    -0.5522 H       
  41 H41           -1.9513    -6.5686     1.9702 H       
  42 H42           -0.3863    -8.9411     0.8572 H       
  43 H43            0.9289    -6.4195     1.5126 H       
  44 H44           -0.2274    -8.8187     3.2971 H       
  45 H45           -2.5367    -8.6089    -0.1284 H       
  46 H46           -0.7231   -12.2924     2.3127 H       
  47 H47           -3.1174    -8.5428     3.2664 H       
  48 H48            0.9421    -6.0536     6.1590 H       
  49 H49            3.5117    -5.3224     6.4714 H       
  50 H50            4.5859    -5.2139     4.0822 H       
@<TRIPOS>BOND
   1    1    2 ar
   2    1    7 1
   3    1    6 ar
   4    2    3 ar
   5    2   32 1
   6    3    4 ar
   7    3    9 1
   8    4    5 ar
   9    4   33 1
  10    5    6 ar
  11    5    8 1
  12    6   34 1
  13    9   10 ar
  14    9   11 ar
  15   10   14 ar
  16   10   35 1
  17   11   12 ar
  18   11   36 1
  19   12   13 ar
  20   12   37 1
  21   13   14 ar
  22   13   15 1
  23   14   38 1
  24   15   16 1
  25   15   39 1
  26   15   40 1
  27   16   17 1
  28   16   18 1
  29   16   41 1
  30   17   19 1
  31   17   20 1
  32   17   42 1
  33   18   23 am
  34   18   43 1
  35   19   21 1
  36   19   27 1
  37   19   44 1
  38   20   45 1
  39   21   22 1
  40   21   28 2
  41   22   46 1
  42   23   24 1
  43   23   25 2
  44   24   26 1
  45   24   29 2
  46   26   31 1
  47   27   47 1
  48   29   30 1
  49   29   48 1
  50   30   31 2
  51   30   49 1
  52   31   50 1

#	End of record

