#	Name: ASD01148422
#	Creating user name:	WinNT
#	Creation time:	15. 06. 2019 19:02

#	Modifying user name:	WinNT
#	Modification time:	15. 06. 2019 19:02

#	Program:	/corina/corina34_cracker 3.40 0067  02.08.2006

@<TRIPOS>MOLECULE
ASD01148422
  56   58    0    0    0
SMALL
NO_CHARGES


@<TRIPOS>ATOM
   1 C1             0.3636     1.8416     0.0680 C.ar    
   2 C2             0.4620     0.4639    -0.0072 C.ar    
   3 C3            -0.6823    -0.3068    -0.0942 C.ar    
   4 C4            -1.9246     0.2990    -0.1059 C.ar    
   5 C5            -2.0236     1.6760    -0.0307 C.ar    
   6 C6            -0.8806     2.4472     0.0615 C.ar    
   7 C7            -3.3785     2.3357    -0.0435 C.3     
   8 O8            -4.3698     1.4909     0.5753 O.3     
   9 C9            -3.3995     3.5758     0.8817 C.3     
  10 C10           -3.9251     3.0055     2.1854 C.2     
  11 N11           -4.4446     1.8493     1.9409 N.2     
  12 C12           -3.8543     3.6600     3.5066 C.ar    
  13 C13           -4.3802     3.0205     4.6323 C.ar    
  14 C14           -3.2564     4.9163     3.6327 C.ar    
  15 C15           -3.1905     5.5266     4.8650 C.ar    
  16 C16           -3.7209     4.8896     5.9891 C.ar    
  17 C17           -4.3141     3.6309     5.8641 C.ar    
  18 C18           -3.6492     5.5445     7.3122 C.2     
  19 O19           -4.2070     5.0439     8.2692 O.2     
  20 N20           -2.9653     6.6967     7.4575 N.am    
  21 C21           -4.8867     2.9439     7.0770 C.3     
  22 C22           -3.7895     2.7084    -1.4694 C.3     
  23 F23           -3.8284     1.5548    -2.2600 F       
  24 F24           -5.0557     3.3030    -1.4494 F       
  25 F25           -2.8602     3.6080    -2.0026 F       
  26 Cl26           1.8002     2.8101     0.1778 Cl      
  27 C27           -2.8942     7.3458     8.7690 C.3     
  28 C28           -2.0771     8.6075     8.6613 C.2     
  29 N29           -1.8754     9.3748     9.7508 N.am    
  30 O30           -1.6010     8.9325     7.5942 O.2     
  31 C31           -1.0811    10.6013     9.6462 C.3     
  32 C32           -1.0068    11.2792    11.0158 C.3     
  33 F33           -0.4058    10.4113    11.9338 F       
  34 F34           -0.2483    12.4505    10.9158 F       
  35 F35           -2.2985    11.5958    11.4501 F       
  36 C36           -0.5752    -1.8077    -0.1766 C.3     
  37 F37            0.7726    -2.1814    -0.1481 F       
  38 F38           -1.2418    -2.3832     0.9104 F       
  39 F39           -1.1571    -2.2519    -1.3688 F       
  40 H40            1.4327    -0.0096     0.0016 H       
  41 H41           -2.8183    -0.3035    -0.1742 H       
  42 H42           -0.9580     3.5228     0.1202 H       
  43 H43           -2.3949     3.9781     1.0125 H       
  44 H44           -4.0749     4.3376     0.4925 H       
  45 H45           -4.8387     2.0474     4.5356 H       
  46 H46           -2.8456     5.4085     2.7636 H       
  47 H47           -2.7283     6.4978     4.9626 H       
  48 H48           -2.5201     7.0961     6.6939 H       
  49 H49           -5.8941     3.3160     7.2636 H       
  50 H50           -4.9232     1.8686     6.9023 H       
  51 H51           -4.2571     3.1503     7.9425 H       
  52 H52           -3.9005     7.5925     9.1073 H       
  53 H53           -2.4259     6.6696     9.4842 H       
  54 H54           -2.2561     9.1149    10.6043 H       
  55 H55           -0.0747    10.3546     9.3078 H       
  56 H56           -1.5493    11.2775     8.9310 H       
@<TRIPOS>BOND
   1    1    2 ar
   2    1   26 1
   3    1    6 ar
   4    2    3 ar
   5    2   40 1
   6    3    4 ar
   7    3   36 1
   8    4    5 ar
   9    4   41 1
  10    5    6 ar
  11    5    7 1
  12    6   42 1
  13    7    8 1
  14    7    9 1
  15    7   22 1
  16    8   11 1
  17    9   10 1
  18    9   43 1
  19    9   44 1
  20   10   11 2
  21   10   12 1
  22   12   13 ar
  23   12   14 ar
  24   13   17 ar
  25   13   45 1
  26   14   15 ar
  27   14   46 1
  28   15   16 ar
  29   15   47 1
  30   16   17 ar
  31   16   18 1
  32   17   21 1
  33   18   19 2
  34   18   20 am
  35   20   27 1
  36   20   48 1
  37   21   49 1
  38   21   50 1
  39   21   51 1
  40   22   23 1
  41   22   24 1
  42   22   25 1
  43   27   28 1
  44   27   52 1
  45   27   53 1
  46   28   30 2
  47   28   29 am
  48   29   31 1
  49   29   54 1
  50   31   32 1
  51   31   55 1
  52   31   56 1
  53   32   33 1
  54   32   34 1
  55   32   35 1
  56   36   37 1
  57   36   38 1
  58   36   39 1

#	End of record

