#	Name: ASD01811155
#	Creating user name:	WinNT
#	Creation time:	15. 06. 2019 19:26

#	Modifying user name:	WinNT
#	Modification time:	15. 06. 2019 19:26

#	Program:	/corina/corina34_cracker 3.40 0067  02.08.2006

@<TRIPOS>MOLECULE
ASD01811155
  67   70    0    0    0
SMALL
NO_CHARGES


@<TRIPOS>ATOM
   1 C1            -7.3567     2.2251    -3.9968 C.1     
   2 C2            -6.3758     3.0158    -3.3163 C.ar    
   3 C3            -5.2069     2.4221    -2.8357 C.ar    
   4 C4            -4.2661     3.1898    -2.1810 C.ar    
   5 C5            -4.4789     4.5449    -1.9998 C.ar    
   6 C6            -5.6351     5.1395    -2.4731 C.ar    
   7 C7            -6.5811     4.3850    -3.1355 C.ar    
   8 N8            -8.1349     1.5978    -4.5367 N.1     
   9 N9            -2.4212     7.7924    -0.2279 N.am    
  10 C10           -1.8686     7.3012    -1.4975 C.3     
  11 C11           -2.9422     6.4791    -2.2174 C.3     
  12 C12           -3.4468     5.3769    -1.2832 C.3     
  13 C13           -4.0754     6.0085    -0.0390 C.3     
  14 C14           -3.0146     6.8253     0.7056 C.3     
  15 C15           -2.3796     9.1045     0.0772 C.2     
  16 C16           -3.0220     9.5966     1.3148 C.ar    
  17 C17           -3.9802    10.6109     1.2505 C.ar    
  18 C18           -4.5806    11.0718     2.4050 C.ar    
  19 C19           -4.2389    10.5342     3.6304 C.ar    
  20 C20           -3.2828     9.5194     3.7090 C.ar    
  21 C21           -2.6772     9.0456     2.5470 C.ar    
  22 O22           -1.8139     9.8834    -0.6649 O.2     
  23 C23           -4.8988    11.0443     4.8855 C.3     
  24 C24           -4.3591    11.2038    -0.0822 C.3     
  25 N25           -2.8686     8.5879     7.1182 N.2     
  26 N26           -3.4096     9.2913     6.1886 N.2     
  27 C27           -2.9178     8.9454     5.0219 C.2     
  28 N28           -1.9990     7.9477     5.2511 N.pl3   
  29 C29           -1.9985     7.7502     6.6014 C.2     
  30 N30           -1.2249     6.8374     7.2971 N.pl3   
  31 C31           -0.2937     5.9662     6.5759 C.3     
  32 C32           -1.3372     6.7424     8.7547 C.3     
  33 C33           -2.4149     5.7189     9.1176 C.3     
  34 O34           -2.0038     4.4205     8.6847 O.3     
  35 C35           -2.9448     3.3855     8.9769 C.3     
  36 H36           -5.0399     1.3644    -2.9759 H       
  37 H37           -3.3616     2.7319    -1.8087 H       
  38 H38           -5.7950     6.1977    -2.3279 H       
  39 H39           -7.4810     4.8513    -3.5087 H       
  40 H40           -1.5769     8.1467    -2.1205 H       
  41 H41           -0.9996     6.6737    -1.2994 H       
  42 H42           -3.7723     7.1286    -2.4953 H       
  43 H43           -2.5157     6.0292    -3.1139 H       
  44 H44           -2.6118     4.7426    -0.9857 H       
  45 H45           -4.8948     6.6625    -0.3375 H       
  46 H46           -4.4555     5.2237     0.6150 H       
  47 H47           -2.2391     6.1590     1.0834 H       
  48 H48           -3.4791     7.3568     1.5361 H       
  49 H49           -5.3206    11.8564     2.3498 H       
  50 H50           -1.9401     8.2581     2.6018 H       
  51 H51           -5.7984    10.4621     5.0853 H       
  52 H52           -4.2092    10.9467     5.7240 H       
  53 H53           -5.1661    12.0929     4.7551 H       
  54 H54           -5.1280    10.5878    -0.5485 H       
  55 H55           -4.7424    12.2135     0.0652 H       
  56 H56           -3.4811    11.2390    -0.7270 H       
  57 H57           -1.4632     7.4815     4.5905 H       
  58 H58            0.6772     6.4558     6.5000 H       
  59 H59           -0.1849     5.0251     7.1150 H       
  60 H60           -0.6806     5.7695     5.5760 H       
  61 H61           -0.3812     6.4273     9.1730 H       
  62 H62           -1.6088     7.7161     9.1624 H       
  63 H63           -2.5609     5.7124    10.1978 H       
  64 H64           -3.3503     5.9865     8.6261 H       
  65 H65           -3.1017     3.3306    10.0541 H       
  66 H66           -3.8912     3.6047     8.4825 H       
  67 H67           -2.5591     2.4317     8.6169 H       
@<TRIPOS>BOND
   1    1    2 1
   2    1    8 3
   3    2    3 ar
   4    2    7 ar
   5    3    4 ar
   6    3   36 1
   7    4    5 ar
   8    4   37 1
   9    5    6 ar
  10    5   12 1
  11    6    7 ar
  12    6   38 1
  13    7   39 1
  14    9   10 1
  15    9   14 1
  16    9   15 am
  17   10   11 1
  18   10   40 1
  19   10   41 1
  20   11   12 1
  21   11   42 1
  22   11   43 1
  23   12   13 1
  24   12   44 1
  25   13   14 1
  26   13   45 1
  27   13   46 1
  28   14   47 1
  29   14   48 1
  30   15   16 1
  31   15   22 2
  32   16   17 ar
  33   16   21 ar
  34   17   18 ar
  35   17   24 1
  36   18   19 ar
  37   18   49 1
  38   19   20 ar
  39   19   23 1
  40   20   21 ar
  41   20   27 1
  42   21   50 1
  43   23   51 1
  44   23   52 1
  45   23   53 1
  46   24   54 1
  47   24   55 1
  48   24   56 1
  49   25   26 1
  50   25   29 2
  51   26   27 2
  52   27   28 1
  53   28   29 1
  54   28   57 1
  55   29   30 1
  56   30   31 1
  57   30   32 1
  58   31   58 1
  59   31   59 1
  60   31   60 1
  61   32   33 1
  62   32   61 1
  63   32   62 1
  64   33   34 1
  65   33   63 1
  66   33   64 1
  67   34   35 1
  68   35   65 1
  69   35   66 1
  70   35   67 1

#	End of record

