#	Name: ASD01910519
#	Creating user name:	WinNT
#	Creation time:	15. 06. 2019 19:56

#	Modifying user name:	WinNT
#	Modification time:	15. 06. 2019 19:56

#	Program:	/corina/corina34_cracker 3.40 0067  02.08.2006

@<TRIPOS>MOLECULE
ASD01910519
  41   44    0    0    0
SMALL
NO_CHARGES


@<TRIPOS>ATOM
   1 O1             0.0354     1.1048     0.1167 O.3     
   2 C2             0.0393    -0.2265    -0.0603 C.2     
   3 N3             1.3074    -0.5922    -0.1506 N.2     
   4 C4             2.0174     0.5386    -0.0237 C.2     
   5 N5             1.1757     1.5176     0.1340 N.2     
   6 C6            -1.1387    -1.1077    -0.1382 C.2     
   7 N7            -1.1155    -2.4123    -0.3114 N.2     
   8 C8            -2.3661    -2.8749    -0.3317 C.2     
   9 C9            -3.2105    -1.8309    -0.1661 C.2     
  10 N10           -2.4425    -0.7116    -0.0373 N.pl3   
  11 C11            3.9366     1.5709    -1.2111 C.3     
  12 C12            3.5197     0.6539    -0.0570 C.3     
  13 C13            4.0159     1.2457     1.2643 C.3     
  14 C14            5.5437     1.3327     1.2443 C.3     
  15 C15            5.9836     2.2574     0.1049 C.3     
  16 N16            5.3901     1.7766    -1.1502 N.am    
  17 C17            6.1644     1.5286    -2.2252 C.2     
  18 C18            7.6033     1.8615    -2.1917 C.ar    
  19 O19            5.6787     1.0309    -3.2223 O.2     
  20 C20            8.0311     3.0631    -1.6241 C.ar    
  21 C21            9.3751     3.3701    -1.5949 C.ar    
  22 C22           10.3019     2.4888    -2.1281 C.ar    
  23 C23            9.8830     1.2920    -2.6947 C.ar    
  24 C24            8.5406     0.9725    -2.7227 C.ar    
  25 F25           11.6174     2.7949    -2.0972 F       
  26 F26           10.7911     0.4367    -3.2134 F       
  27 H27           -2.6557    -3.9076    -0.4587 H       
  28 H28           -4.2892    -1.8762    -0.1368 H       
  29 H29           -2.7616     0.1949     0.0945 H       
  30 H30            3.6729     1.1058    -2.1610 H       
  31 H31            3.4276     2.5302    -1.1178 H       
  32 H32            3.9577    -0.3338    -0.2006 H       
  33 H33            3.5970     2.2434     1.3954 H       
  34 H34            3.6993     0.6078     2.0895 H       
  35 H35            5.8978     1.7324     2.1945 H       
  36 H36            5.9627     0.3386     1.0884 H       
  37 H37            5.6415     3.2727     0.3055 H       
  38 H38            7.0705     2.2452     0.0234 H       
  39 H39            7.3102     3.7516    -1.2086 H       
  40 H40            9.7060     4.2996    -1.1558 H       
  41 H41            8.2149     0.0417    -3.1630 H       
@<TRIPOS>BOND
   1    1    2 1
   2    1    5 1
   3    2    3 2
   4    2    6 1
   5    3    4 1
   6    4    5 2
   7    4   12 1
   8    6    7 2
   9    6   10 1
  10    7    8 1
  11    8    9 2
  12    8   27 1
  13    9   10 1
  14    9   28 1
  15   10   29 1
  16   11   12 1
  17   11   16 1
  18   11   30 1
  19   11   31 1
  20   12   13 1
  21   12   32 1
  22   13   14 1
  23   13   33 1
  24   13   34 1
  25   14   15 1
  26   14   35 1
  27   14   36 1
  28   15   16 1
  29   15   37 1
  30   15   38 1
  31   16   17 am
  32   17   18 1
  33   17   19 2
  34   18   20 ar
  35   18   24 ar
  36   20   21 ar
  37   20   39 1
  38   21   22 ar
  39   21   40 1
  40   22   23 ar
  41   22   25 1
  42   23   24 ar
  43   23   26 1
  44   24   41 1

#	End of record

