#	Name: ASD01882336
#	Creating user name:	WinNT
#	Creation time:	15. 06. 2019 19:44

#	Modifying user name:	WinNT
#	Modification time:	15. 06. 2019 19:44

#	Program:	/corina/corina34_cracker 3.40 0067  02.08.2006

@<TRIPOS>MOLECULE
ASD01882336
  50   54    0    0    0
SMALL
NO_CHARGES


@<TRIPOS>ATOM
   1 C1             0.0345     1.3154    -0.2282 C.ar    
   2 C2             0.0088    -0.0731    -0.3303 C.ar    
   3 C3             1.1771    -0.7736    -0.5381 C.ar    
   4 C4             2.3645    -0.0606    -0.6511 C.ar    
   5 C5             2.3272     1.3159    -0.5509 C.ar    
   6 N6             1.1935     1.9547    -0.3473 N.ar    
   7 O7            -1.2114     1.8118     0.0025 O.3     
   8 C8            -1.4319    -0.4978    -0.1847 C.3     
   9 C9            -2.1927     0.8288    -0.3746 C.3     
  10 N10           -3.5774    -2.2739     0.2281 N.pl3   
  11 C11           -3.3082    -1.8313    -1.1468 C.3     
  12 C12           -1.8183    -1.4921    -1.2713 C.3     
  13 C13           -1.6947    -1.0661     1.2033 C.3     
  14 C14           -3.1841    -1.4019     1.3434 C.3     
  15 C15           -6.0281    -4.7918     1.3027 C.2     
  16 C16           -5.4248    -3.5435     1.0700 C.2     
  17 C17           -4.1950    -3.4987     0.4701 C.2     
  18 C18           -3.5572    -4.7017     0.0980 C.2     
  19 C19           -4.1537    -5.8873     0.3310 C.2     
  20 N20           -5.3795    -5.9433     0.9279 N.pl3   
  21 N21           -7.2706    -6.4429     1.8307 N.2     
  22 N22           -7.1757    -5.1599     1.8520 N.2     
  23 C23           -6.2071    -6.9682     1.2815 C.2     
  24 C24           -5.9425    -8.4378     1.0786 C.3     
  25 O25           -5.2674    -8.9628     2.2235 O.3     
  26 C26           -4.9678   -10.3571     2.1329 C.3     
  27 C27           -4.2495   -10.8081     3.4063 C.3     
  28 Cl28          -6.2295    -2.0776     1.5362 Cl      
  29 H29            1.1702    -1.8511    -0.6111 H       
  30 H30            3.3004    -0.5743    -0.8140 H       
  31 H31            3.2443     1.8790    -0.6413 H       
  32 H32           -3.0594     0.8752     0.2847 H       
  33 H33           -2.4898     0.9586    -1.4152 H       
  34 H34           -3.5608    -2.6301    -1.8442 H       
  35 H35           -3.9045    -0.9464    -1.3694 H       
  36 H36           -1.6261    -1.0532    -2.2504 H       
  37 H37           -1.2279    -2.4014    -1.1585 H       
  38 H38           -1.1035    -1.9710     1.3436 H       
  39 H39           -1.4159    -0.3292     1.9566 H       
  40 H40           -3.7703    -0.4834     1.3136 H       
  41 H41           -3.3555    -1.9172     2.2884 H       
  42 H42           -2.5872    -4.6718    -0.3758 H       
  43 H43           -3.6570    -6.8019     0.0424 H       
  44 H44           -6.8885    -8.9619     0.9426 H       
  45 H45           -5.3201    -8.5763     0.1946 H       
  46 H46           -5.8935   -10.9210     2.0188 H       
  47 H47           -4.3251   -10.5353     1.2707 H       
  48 H48           -3.3237   -10.2442     3.5204 H       
  49 H49           -4.8922   -10.6299     4.2685 H       
  50 H50           -4.0210   -11.8717     3.3372 H       
@<TRIPOS>BOND
   1    1    2 ar
   2    1    6 ar
   3    1    7 1
   4    2    3 ar
   5    2    8 1
   6    3    4 ar
   7    3   29 1
   8    4    5 ar
   9    4   30 1
  10    5    6 ar
  11    5   31 1
  12    7    9 1
  13    8    9 1
  14    8   12 1
  15    8   13 1
  16    9   32 1
  17    9   33 1
  18   10   11 1
  19   10   14 1
  20   10   17 1
  21   11   12 1
  22   11   34 1
  23   11   35 1
  24   12   36 1
  25   12   37 1
  26   13   14 1
  27   13   38 1
  28   13   39 1
  29   14   40 1
  30   14   41 1
  31   15   16 1
  32   15   20 1
  33   15   22 2
  34   16   17 2
  35   16   28 1
  36   17   18 1
  37   18   19 2
  38   18   42 1
  39   19   20 1
  40   19   43 1
  41   20   23 1
  42   21   22 1
  43   21   23 2
  44   23   24 1
  45   24   25 1
  46   24   44 1
  47   24   45 1
  48   25   26 1
  49   26   27 1
  50   26   46 1
  51   26   47 1
  52   27   48 1
  53   27   49 1
  54   27   50 1

#	End of record

