#	Name: ASD00431018
#	Creating user name:	WinNT
#	Creation time:	15. 06. 2019 18:35

#	Modifying user name:	WinNT
#	Modification time:	15. 06. 2019 18:35

#	Program:	/corina/corina34_cracker 3.40 0067  02.08.2006

@<TRIPOS>MOLECULE
ASD00431018
  23   24    0    0    0
SMALL
NO_CHARGES


@<TRIPOS>ATOM
   1 C1            -0.0168     1.3896     0.0097 C.ar    
   2 C2             0.0021    -0.0041     0.0020 C.ar    
   3 C3             1.1780    -0.6889    -0.0128 C.ar    
   4 C4             2.3935     0.0166    -0.0206 C.ar    
   5 C5             2.3743     1.4339    -0.0128 C.ar    
   6 C6             1.1401     2.1062     0.0025 C.ar    
   7 C7             3.6273    -0.6554    -0.0354 C.ar    
   8 C8             4.7846     0.0613    -0.0421 C.ar    
   9 C9             4.7657     1.4544    -0.0346 C.ar    
  10 C10            3.5894     2.1394    -0.0202 C.ar    
  11 C11            3.5904     3.6463    -0.0122 C.3     
  12 N12            3.3627     4.1289     1.3564 N.3     
  13 H13           -0.9639     1.9086     0.0170 H       
  14 H14           -0.9305    -0.5487     0.0083 H       
  15 H15            1.1772    -1.7689    -0.0183 H       
  16 H16            1.1100     3.1857     0.0082 H       
  17 H17            3.6573    -1.7350    -0.0410 H       
  18 H18            5.7316    -0.4578    -0.0532 H       
  19 H19            5.6983     1.9991    -0.0399 H       
  20 H20            4.5531     4.0109    -0.3706 H       
  21 H21            2.7974     4.0136    -0.6637 H       
  22 H22            3.3589     5.1374     1.3883 H       
  23 H23            2.5067     3.7520     1.7350 H       
@<TRIPOS>BOND
   1    1    2 ar
   2    1    6 ar
   3    1   13 1
   4    2    3 ar
   5    2   14 1
   6    3    4 ar
   7    3   15 1
   8    4    5 ar
   9    4    7 ar
  10    5    6 ar
  11    5   10 ar
  12    6   16 1
  13    7    8 ar
  14    7   17 1
  15    8    9 ar
  16    8   18 1
  17    9   10 ar
  18    9   19 1
  19   10   11 1
  20   11   12 1
  21   11   20 1
  22   11   21 1
  23   12   22 1
  24   12   23 1

#	End of record

