#	Name: ASD03080079
#	Creating user name:	WinNT
#	Creation time:	15. 06. 2019 20:26

#	Modifying user name:	WinNT
#	Modification time:	15. 06. 2019 20:26

#	Program:	/corina/corina34_cracker 3.40 0067  02.08.2006

@<TRIPOS>MOLECULE
ASD03080079
  27   29    0    0    0
SMALL
NO_CHARGES


@<TRIPOS>ATOM
   1 C1             0.0021    -0.0041     0.0020 C.1     
   2 C2            -0.0173     1.4278     0.0099 C.ar    
   3 C3             1.1817     2.1443     0.0023 C.ar    
   4 C4             1.1625     3.5264     0.0099 C.ar    
   5 C5            -0.0428     4.2063     0.0252 C.ar    
   6 C6            -1.2446     3.5007     0.0333 C.ar    
   7 C7            -1.2332     2.1101     0.0194 C.ar    
   8 N8             0.0175    -1.1399    -0.0042 N.1     
   9 O9            -4.5793     4.5636     0.0729 O.3     
  10 N10           -3.7300     3.6981     0.0595 N.2     
  11 C11           -2.5360     4.2330     0.0501 C.2     
  12 N12           -2.6948     5.5730     0.0589 N.2     
  13 C13           -3.9991     5.7737     0.0734 C.2     
  14 C14           -3.9570     8.2696     0.0859 C.ar    
  15 C15           -4.6888     7.0812     0.0876 C.ar    
  16 C16           -6.0868     7.1482     0.1024 C.ar    
  17 C17           -6.6836     8.3969     0.1147 C.ar    
  18 C18           -5.8874     9.5277     0.1121 C.ar    
  19 N19           -4.5713     9.4342     0.0976 N.ar    
  20 F20            2.3243     4.2159     0.0030 F       
  21 H21            2.1247     1.6179    -0.0092 H       
  22 H22           -0.0520     5.2862     0.0311 H       
  23 H23           -2.1629     1.5606     0.0208 H       
  24 H24           -2.8777     8.2336     0.0790 H       
  25 H25           -6.6845     6.2486     0.1038 H       
  26 H26           -7.7597     8.4872     0.1260 H       
  27 H27           -6.3504    10.5034     0.1217 H       
@<TRIPOS>BOND
   1    1    2 1
   2    1    8 3
   3    2    3 ar
   4    2    7 ar
   5    3    4 ar
   6    3   21 1
   7    4    5 ar
   8    4   20 1
   9    5    6 ar
  10    5   22 1
  11    6    7 ar
  12    6   11 1
  13    7   23 1
  14    9   10 1
  15    9   13 1
  16   10   11 2
  17   11   12 1
  18   12   13 2
  19   13   15 1
  20   14   15 ar
  21   14   19 ar
  22   14   24 1
  23   15   16 ar
  24   16   17 ar
  25   16   25 1
  26   17   18 ar
  27   17   26 1
  28   18   19 ar
  29   18   27 1

#	End of record

