#	Name: ASD00840124
#	Creating user name:	WinNT
#	Creation time:	15. 06. 2019 18:37

#	Modifying user name:	WinNT
#	Modification time:	15. 06. 2019 18:37

#	Program:	/corina/corina34_cracker 3.40 0067  02.08.2006

@<TRIPOS>MOLECULE
ASD00840124
  91   96    0    0    0
SMALL
NO_CHARGES


@<TRIPOS>ATOM
   1 N1            -0.0824     1.3694     0.0073 N.3     
   2 C2            -0.1705    -0.0897     0.1476 C.3     
   3 C3             0.5879    -0.5296     1.4020 C.3     
   4 C4             2.0520    -0.0968     1.2854 C.3     
   5 C5             2.1136     1.4208     1.0917 C.3     
   6 C6             1.3110     1.8042    -0.1537 C.3     
   7 N7             4.9311    -1.9526     3.8420 N.3     
   8 C8             3.5360    -2.3805     4.0061 C.3     
   9 C9             2.7335    -1.9968     2.7608 C.3     
  10 C10            2.8017    -0.4800     2.5629 C.3     
  11 C11            4.2677    -0.0543     2.4431 C.3     
  12 C12            5.0257    -0.4943     3.6976 C.3     
  13 N13           -2.2600     5.3666    -2.7896 N.am    
  14 C14           -1.7456     4.1256    -2.8180 C.2     
  15 C15           -2.6355     3.2545    -1.9571 C.3     
  16 C16           -3.7043     4.1999    -1.4589 C.ar    
  17 C17           -4.7990     4.0273    -0.6413 C.ar    
  18 C18           -5.6210     5.1028    -0.3513 C.ar    
  19 C19           -5.3376     6.3499    -0.8863 C.ar    
  20 C20           -4.2400     6.5234    -1.7068 C.ar    
  21 C21           -3.4093     5.4441    -2.0013 C.ar    
  22 O22           -0.7548     3.7701    -3.4206 O.2     
  23 F23           -6.1389     7.4004    -0.6042 F       
  24 C24           -4.0047     1.1564    -2.1713 C.ar    
  25 C25           -3.2486     2.1506    -2.7796 C.ar    
  26 C26           -3.0665     2.1139    -4.1508 C.ar    
  27 C27           -3.6500     1.0788    -4.8688 C.ar    
  28 C28           -4.3887     0.1245    -4.1985 C.ar    
  29 N29           -4.5448     0.1862    -2.8896 N.ar    
  30 O30           -4.1860     1.1780    -0.8269 O.3     
  31 C31           -4.9733     0.1279    -0.2616 C.3     
  32 C32           -5.0658     0.3190     1.2536 C.3     
  33 S33           -1.6021     6.6572    -3.5919 S.o2    
  34 O34           -2.0477     7.8223    -2.9113 O.2     
  35 O35           -0.2288     6.3496    -3.7889 O.2     
  36 C36           -2.3359     6.7051    -5.1931 C.ar    
  37 C37           -2.1086     5.6715    -6.0912 C.ar    
  38 C38           -2.6862     5.7098    -7.3507 C.ar    
  39 C39           -3.4898     6.7810    -7.7101 C.ar    
  40 C40           -3.7139     7.8118    -6.8088 C.ar    
  41 C41           -3.1415     7.7686    -5.5516 C.ar    
  42 O42           -4.0571     6.8216    -8.9444 O.3     
  43 C43           -4.8730     7.9552    -9.2465 C.3     
  44 O44           -1.3202     4.6232    -5.7362 O.3     
  45 C45           -1.1300     3.5953    -6.7105 C.3     
  46 Cl46          -7.0025     4.8903     0.6783 Cl      
  47 C47           -1.8557     2.6827    -0.8012 C.2     
  48 O48           -2.1285     3.0089     0.3347 O.2     
  49 N49           -0.8553     1.8090    -1.0296 N.am    
  50 C50            5.7617    -2.4261     4.9572 C.3     
  51 H51           -1.2165    -0.3838     0.2338 H       
  52 H52            0.2696    -0.5660    -0.7285 H       
  53 H53            0.1397    -0.0645     2.2800 H       
  54 H54            0.5355    -1.6142     1.4973 H       
  55 H55            2.5112    -0.5922     0.4299 H       
  56 H56            1.6894     1.9167     1.9648 H       
  57 H57            3.1512     1.7298     0.9653 H       
  58 H58            1.7441     1.3190    -1.0284 H       
  59 H59            1.3409     2.8856    -0.2864 H       
  60 H60            3.5012    -3.4614     4.1418 H       
  61 H61            3.1064    -1.8909     4.8801 H       
  62 H62            3.1541    -2.4969     1.8885 H       
  63 H63            1.6946    -2.3006     2.8895 H       
  64 H64            2.3450     0.0198     3.4171 H       
  65 H65            4.7125    -0.5239     1.5657 H       
  66 H66            4.3249     1.0298     2.3447 H       
  67 H67            4.5891    -0.0135     4.5730 H       
  68 H68            6.0730    -0.2053     3.6092 H       
  69 H69           -5.0161     3.0539    -0.2270 H       
  70 H70           -4.0250     7.4975    -2.1206 H       
  71 H71           -2.4840     2.8733    -4.6511 H       
  72 H72           -3.5275     1.0210    -5.9403 H       
  73 H73           -4.8450    -0.6826    -4.7524 H       
  74 H74           -5.9742     0.1519    -0.6926 H       
  75 H75           -4.5071    -0.8331    -0.4789 H       
  76 H76           -4.0649     0.2950     1.6846 H       
  77 H77           -5.5320     1.2800     1.4709 H       
  78 H78           -5.6663    -0.4820     1.6848 H       
  79 H79           -2.5103     4.9067    -8.0510 H       
  80 H80           -4.3398     8.6464    -7.0883 H       
  81 H81           -3.3207     8.5697    -4.8499 H       
  82 H82           -5.2629     7.8624   -10.2601 H       
  83 H83           -5.7026     8.0040    -8.5411 H       
  84 H84           -4.2759     8.8637    -9.1686 H       
  85 H85           -0.6683     4.0204    -7.6017 H       
  86 H86           -0.4822     2.8208    -6.2999 H       
  87 H87           -2.0945     3.1606    -6.9732 H       
  88 H88           -0.6842     1.4923    -1.9304 H       
  89 H89            5.7323    -3.5151     4.9953 H       
  90 H90            6.7899    -2.0953     4.8106 H       
  91 H91            5.3792    -2.0194     5.8934 H       
@<TRIPOS>BOND
   1    1    2 1
   2    1    6 1
   3    1   49 1
   4    2    3 1
   5    2   51 1
   6    2   52 1
   7    3    4 1
   8    3   53 1
   9    3   54 1
  10    4    5 1
  11    4   10 1
  12    4   55 1
  13    5    6 1
  14    5   56 1
  15    5   57 1
  16    6   58 1
  17    6   59 1
  18    7    8 1
  19    7   12 1
  20    7   50 1
  21    8    9 1
  22    8   60 1
  23    8   61 1
  24    9   10 1
  25    9   62 1
  26    9   63 1
  27   10   11 1
  28   10   64 1
  29   11   12 1
  30   11   65 1
  31   11   66 1
  32   12   67 1
  33   12   68 1
  34   13   14 am
  35   13   21 1
  36   13   33 am
  37   14   15 1
  38   14   22 2
  39   15   16 1
  40   15   25 1
  41   15   47 1
  42   16   17 ar
  43   16   21 ar
  44   17   18 ar
  45   17   69 1
  46   18   19 ar
  47   18   46 1
  48   19   20 ar
  49   19   23 1
  50   20   21 ar
  51   20   70 1
  52   24   25 ar
  53   24   29 ar
  54   24   30 1
  55   25   26 ar
  56   26   27 ar
  57   26   71 1
  58   27   28 ar
  59   27   72 1
  60   28   29 ar
  61   28   73 1
  62   30   31 1
  63   31   32 1
  64   31   74 1
  65   31   75 1
  66   32   76 1
  67   32   77 1
  68   32   78 1
  69   33   34 2
  70   33   35 2
  71   33   36 1
  72   36   37 ar
  73   36   41 ar
  74   37   38 ar
  75   37   44 1
  76   38   39 ar
  77   38   79 1
  78   39   40 ar
  79   39   42 1
  80   40   41 ar
  81   40   80 1
  82   41   81 1
  83   42   43 1
  84   43   82 1
  85   43   83 1
  86   43   84 1
  87   44   45 1
  88   45   85 1
  89   45   86 1
  90   45   87 1
  91   47   48 2
  92   47   49 am
  93   49   88 1
  94   50   89 1
  95   50   90 1
  96   50   91 1

#	End of record

