#	Name: ASD01884349
#	Creating user name:	WinNT
#	Creation time:	15. 06. 2019 19:48

#	Modifying user name:	WinNT
#	Modification time:	15. 06. 2019 19:48

#	Program:	/corina/corina34_cracker 3.40 0067  02.08.2006

@<TRIPOS>MOLECULE
ASD01884349
  55   57    0    0    0
SMALL
NO_CHARGES


@<TRIPOS>ATOM
   1 C1            -0.0168     1.3884     0.0097 C.2     
   2 C2             0.0021    -0.0041     0.0020 C.2     
   3 C3            -1.2095    -0.6965     0.0104 C.2     
   4 C4            -2.3831    -0.0157     0.0252 C.2     
   5 N5            -2.4093     1.3392     0.0327 N.am    
   6 C6            -1.2693     2.0558     0.0312 C.2     
   7 O7            -1.3129     3.2741     0.0380 O.2     
   8 C8            -3.6983     2.0352     0.0483 C.3     
   9 C9             1.2059     2.1337     0.0020 C.1     
  10 N10            2.1759     2.7249    -0.0041 N.1     
  11 N11            1.6901    -1.1066     1.3585 N.3     
  12 C12            2.8290    -2.0352     1.3670 C.3     
  13 C13            3.2431    -2.3172     2.8131 C.3     
  14 N14            2.1012    -2.8822     3.5456 N.3     
  15 C15            0.9623    -1.9536     3.5371 C.3     
  16 C16            0.5482    -1.6716     2.0910 C.3     
  17 C17            2.4808    -3.2373     4.9196 C.3     
  18 C18           -4.1338     2.2698     1.4962 C.3     
  19 C19            1.3105    -0.7515    -0.0155 C.3     
  20 C20           -5.4800     2.9967     1.5124 C.3     
  21 C21           -5.9155     3.2312     2.9603 C.3     
  22 O22            1.3206    -3.2202     5.7538 O.3     
  23 C23            0.5091    -4.3093     5.7044 C.ar    
  24 C24            0.8146    -5.3771     4.8735 C.ar    
  25 N25            0.0303    -6.4356     4.8224 N.ar    
  26 C26           -1.0655    -6.5237     5.5503 C.ar    
  27 C27           -1.4362    -5.4995     6.4017 C.ar    
  28 C28           -0.6370    -4.3714     6.4908 C.ar    
  29 H29           -1.2130    -1.7765     0.0046 H       
  30 H30           -3.3137    -0.5638     0.0308 H       
  31 H31           -3.5999     2.9937    -0.4613 H       
  32 H32           -4.4456     1.4275    -0.4619 H       
  33 H33            2.5411    -2.9683     0.8826 H       
  34 H34            3.6659    -1.5892     0.8295 H       
  35 H35            4.0692    -3.0283     2.8228 H       
  36 H36            3.5569    -1.3883     3.2893 H       
  37 H37            0.1254    -2.3996     4.0746 H       
  38 H38            1.2502    -1.0205     4.0215 H       
  39 H39           -0.2779    -0.9605     2.0813 H       
  40 H40            0.2344    -2.6005     1.6148 H       
  41 H41            2.9203    -4.2347     4.9289 H       
  42 H42            3.2078    -2.5164     5.2935 H       
  43 H43           -4.2323     1.3113     2.0058 H       
  44 H44           -3.3866     2.8775     2.0064 H       
  45 H45            1.2023    -1.6595    -0.6087 H       
  46 H46            2.0835    -0.1207    -0.4544 H       
  47 H47           -5.3816     3.9552     1.0028 H       
  48 H48           -6.2273     2.3889     1.0022 H       
  49 H49           -6.0140     2.2727     3.4699 H       
  50 H50           -5.1683     3.8390     3.4705 H       
  51 H51           -6.8746     3.7491     2.9718 H       
  52 H52            1.7040    -5.3410     4.2619 H       
  53 H53           -1.6820    -7.4077     5.4801 H       
  54 H54           -2.3359    -5.5798     6.9938 H       
  55 H55           -0.9022    -3.5561     7.1476 H       
@<TRIPOS>BOND
   1    1    2 2
   2    1    9 1
   3    1    6 1
   4    2    3 1
   5    2   19 1
   6    3    4 2
   7    3   29 1
   8    4    5 1
   9    4   30 1
  10    5    6 am
  11    5    8 1
  12    6    7 2
  13    8   18 1
  14    8   31 1
  15    8   32 1
  16    9   10 3
  17   11   12 1
  18   11   16 1
  19   11   19 1
  20   12   13 1
  21   12   33 1
  22   12   34 1
  23   13   14 1
  24   13   35 1
  25   13   36 1
  26   14   15 1
  27   14   17 1
  28   15   16 1
  29   15   37 1
  30   15   38 1
  31   16   39 1
  32   16   40 1
  33   17   22 1
  34   17   41 1
  35   17   42 1
  36   18   20 1
  37   18   43 1
  38   18   44 1
  39   19   45 1
  40   19   46 1
  41   20   21 1
  42   20   47 1
  43   20   48 1
  44   21   49 1
  45   21   50 1
  46   21   51 1
  47   22   23 1
  48   23   24 ar
  49   23   28 ar
  50   24   25 ar
  51   24   52 1
  52   25   26 ar
  53   26   27 ar
  54   26   53 1
  55   27   28 ar
  56   27   54 1
  57   28   55 1

#	End of record

