#	Name: ASD03091435
#	Creating user name:	WinNT
#	Creation time:	15. 06. 2019 20:30

#	Modifying user name:	WinNT
#	Modification time:	15. 06. 2019 20:30

#	Program:	/corina/corina34_cracker 3.40 0067  02.08.2006

@<TRIPOS>MOLECULE
ASD03091435
  35   37    0    0    0
SMALL
NO_CHARGES


@<TRIPOS>ATOM
   1 C1             0.0253     1.6656    -0.0364 C.3     
   2 C2            -0.0009     0.1368    -0.0928 C.3     
   3 N3             0.6638    -0.4097     1.0972 N.3     
   4 C4            -0.0351    -0.0103     2.3253 C.3     
   5 C5            -0.0106     1.5140     2.4557 C.3     
   6 C6             1.4433     1.9938     2.5221 C.3     
   7 N7             2.1016     1.6835     1.2457 N.am    
   8 C8             1.4798     2.1468    -0.0022 C.3     
   9 C9            -0.6897     2.1383     1.2330 C.3     
  10 C10            3.2546     0.9861     1.2201 C.2     
  11 O11            3.8180     0.7045     2.2600 O.2     
  12 O12            3.2683     0.6837    -1.2865 O.3     
  13 N13            3.9858     0.2470    -2.1558 N.2     
  14 C14            5.1064    -0.2178    -1.6739 C.2     
  15 C15            5.0496    -0.0256    -0.2696 C.2     
  16 C16            3.8332     0.5644    -0.0700 C.2     
  17 O17            6.1247    -0.7750    -2.3774 O.3     
  18 C18            5.9611    -0.8655    -3.7941 C.3     
  19 H19           -0.4733     2.0722    -0.9163 H       
  20 H20           -1.0345    -0.2079    -0.1219 H       
  21 H21            0.5203    -0.2026    -0.9879 H       
  22 H22            0.7444    -1.4137     1.0372 H       
  23 H23           -1.0685    -0.3545     2.2834 H       
  24 H24            0.4613    -0.4564     3.1871 H       
  25 H25           -0.5352     1.8115     3.3637 H       
  26 H26            1.4657     3.0701     2.6927 H       
  27 H27            1.9604     1.4820     3.3339 H       
  28 H28            2.0209     1.7359    -0.8546 H       
  29 H29            1.5055     3.2359    -0.0409 H       
  30 H30           -0.6327     3.2248     1.2999 H       
  31 H31           -1.7343     1.8290     1.1991 H       
  32 H32            5.7935    -0.2852     0.4691 H       
  33 H33            5.8305     0.1338    -4.2094 H       
  34 H34            6.8447    -1.3288    -4.2331 H       
  35 H35            5.0831    -1.4706    -4.0206 H       
@<TRIPOS>BOND
   1    1    2 1
   2    1    8 1
   3    1    9 1
   4    1   19 1
   5    2    3 1
   6    2   20 1
   7    2   21 1
   8    3    4 1
   9    3   22 1
  10    4    5 1
  11    4   23 1
  12    4   24 1
  13    5    6 1
  14    5    9 1
  15    5   25 1
  16    6    7 1
  17    6   26 1
  18    6   27 1
  19    7    8 1
  20    7   10 am
  21    8   28 1
  22    8   29 1
  23    9   30 1
  24    9   31 1
  25   10   11 2
  26   10   16 1
  27   12   13 1
  28   12   16 1
  29   13   14 2
  30   14   15 1
  31   14   17 1
  32   15   16 2
  33   15   32 1
  34   17   18 1
  35   18   33 1
  36   18   34 1
  37   18   35 1

#	End of record

