#	Name: ASD01180208
#	Creating user name:	WinNT
#	Creation time:	15. 06. 2019 19:07

#	Modifying user name:	WinNT
#	Modification time:	15. 06. 2019 19:07

#	Program:	/corina/corina34_cracker 3.40 0067  02.08.2006

@<TRIPOS>MOLECULE
ASD01180208
  70   72    0    0    0
SMALL
NO_CHARGES


@<TRIPOS>ATOM
   1 C1             0.6799     1.2135    -0.6551 C.ar    
   2 C2             0.5896    -0.1599    -0.5542 C.ar    
   3 C3             1.7482    -0.9344    -0.5643 C.ar    
   4 C4             2.9923    -0.3163    -0.6763 C.ar    
   5 C5             3.0706     1.0579    -0.7766 C.ar    
   6 C6             1.9173     1.8216    -0.7661 C.ar    
   7 C7             1.6576    -2.4110    -0.4556 C.ar    
   8 C8             2.0626    -3.2154    -1.5197 C.ar    
   9 C9             1.9781    -4.5874    -1.4165 C.ar    
  10 C10            1.4893    -5.1691    -0.2523 C.ar    
  11 C11            1.0848    -4.3688     0.8100 C.ar    
  12 C12            1.1727    -2.9965     0.7129 C.ar    
  13 N13            1.4040    -6.5584    -0.1501 N.pl3   
  14 C14            0.9609    -7.1748     1.1028 C.3     
  15 C15            0.3952    -8.5422     0.8173 C.ar    
  16 N16            1.1878    -9.4877     0.3502 N.ar    
  17 C17            0.7441   -10.6988     0.0843 C.ar    
  18 C18           -0.5968   -11.0243     0.2907 C.ar    
  19 C19           -1.4628   -10.0417     0.7858 C.ar    
  20 C20           -0.9456    -8.7870     1.0547 C.ar    
  21 C21           -1.0949   -12.3837    -0.0088 C.2     
  22 N22           -0.2515   -13.3206    -0.4854 N.am    
  23 O23           -2.2652   -12.6563     0.1748 O.2     
  24 C24           -0.7452   -14.6677    -0.7822 C.3     
  25 C25            0.4060   -15.5288    -1.3059 C.3     
  26 C26           -0.1018   -16.9145    -1.6111 C.2     
  27 O27            0.7382   -17.8476    -2.0858 O.3     
  28 O28           -1.2651   -17.1854    -1.4286 O.2     
  29 C29            2.0094     3.3218    -0.8764 C.3     
  30 F30            1.9648     3.6938    -2.2243 F       
  31 F31            0.9360     3.9062    -0.1956 F       
  32 F32            3.2128     3.7579    -0.3119 F       
  33 C33            2.5921    -2.5854    -2.7822 C.3     
  34 C34            0.7345    -2.1295     1.8650 C.3     
  35 C35            2.1504    -7.3039     2.0563 C.3     
  36 C36            1.6716    -7.8676     3.3957 C.3     
  37 C37            2.8776    -8.1239     4.3016 C.3     
  38 C38            0.7345    -6.8614     4.0667 C.3     
  39 H39           -0.2176     1.8144    -0.6519 H       
  40 H40           -0.3771    -0.6336    -0.4672 H       
  41 H41            3.8933    -0.9116    -0.6843 H       
  42 H42            4.0342     1.5379    -0.8632 H       
  43 H43            2.2914    -5.2109    -2.2408 H       
  44 H44            0.7050    -4.8226     1.7135 H       
  45 H45            1.6382    -7.1158    -0.9086 H       
  46 H46            0.1929    -6.5526     1.5622 H       
  47 H47            1.4239   -11.4462    -0.2972 H       
  48 H48           -2.5068   -10.2590     0.9574 H       
  49 H49           -1.5838    -8.0043     1.4376 H       
  50 H50            0.6824   -13.1031    -0.6320 H       
  51 H51           -1.1494   -15.1148     0.1260 H       
  52 H52           -1.5283   -14.6093    -1.5381 H       
  53 H53            0.8102   -15.0817    -2.2140 H       
  54 H54            1.1891   -15.5872    -0.5499 H       
  55 H55            0.3664   -18.7218    -2.2667 H       
  56 H56            3.6722    -2.4629    -2.7018 H       
  57 H57            2.3615    -3.2268    -3.6327 H       
  58 H58            2.1256    -1.6107    -2.9252 H       
  59 H59            1.5803    -1.9540     2.5299 H       
  60 H60            0.3683    -1.1763     1.4837 H       
  61 H61           -0.0618    -2.6310     2.4149 H       
  62 H62            2.8917    -7.9758     1.6236 H       
  63 H63            2.5977    -6.3226     2.2142 H       
  64 H64            1.1389    -8.8034     3.2265 H       
  65 H65            3.4104    -7.1881     4.4708 H       
  66 H66            2.5365    -8.5255     5.2558 H       
  67 H67            3.5453    -8.8408     3.8236 H       
  68 H68            1.2320    -5.8943     4.1397 H       
  69 H69           -0.1738    -6.7588     3.4729 H       
  70 H70            0.4777    -7.2141     5.0656 H       
@<TRIPOS>BOND
   1    1    2 ar
   2    1    6 ar
   3    1   39 1
   4    2    3 ar
   5    2   40 1
   6    3    4 ar
   7    3    7 1
   8    4    5 ar
   9    4   41 1
  10    5    6 ar
  11    5   42 1
  12    6   29 1
  13    7    8 ar
  14    7   12 ar
  15    8    9 ar
  16    8   33 1
  17    9   10 ar
  18    9   43 1
  19   10   11 ar
  20   10   13 1
  21   11   12 ar
  22   11   44 1
  23   12   34 1
  24   13   14 1
  25   13   45 1
  26   14   15 1
  27   14   35 1
  28   14   46 1
  29   15   16 ar
  30   15   20 ar
  31   16   17 ar
  32   17   18 ar
  33   17   47 1
  34   18   19 ar
  35   18   21 1
  36   19   20 ar
  37   19   48 1
  38   20   49 1
  39   21   22 am
  40   21   23 2
  41   22   24 1
  42   22   50 1
  43   24   25 1
  44   24   51 1
  45   24   52 1
  46   25   26 1
  47   25   53 1
  48   25   54 1
  49   26   27 1
  50   26   28 2
  51   27   55 1
  52   29   30 1
  53   29   31 1
  54   29   32 1
  55   33   56 1
  56   33   57 1
  57   33   58 1
  58   34   59 1
  59   34   60 1
  60   34   61 1
  61   35   36 1
  62   35   62 1
  63   35   63 1
  64   36   37 1
  65   36   38 1
  66   36   64 1
  67   37   65 1
  68   37   66 1
  69   37   67 1
  70   38   68 1
  71   38   69 1
  72   38   70 1

#	End of record

