#	Name: ASD03731356
#	Creating user name:	WinNT
#	Creation time:	15. 06. 2019 20:45

#	Modifying user name:	WinNT
#	Modification time:	15. 06. 2019 20:45

#	Program:	/corina/corina34_cracker 3.40 0067  02.08.2006

@<TRIPOS>MOLECULE
ASD03731356
  61   68    0    0    0
SMALL
NO_CHARGES


@<TRIPOS>ATOM
   1 C1            -0.0180     1.4738     0.0101 C.2     
   2 C2             0.0021    -0.0041     0.0020 C.ar    
   3 C3             1.2186    -0.6886    -0.0133 C.ar    
   4 C4             1.2302    -2.0681    -0.0208 C.ar    
   5 C5             0.0396    -2.7730    -0.0138 C.ar    
   6 C6            -1.1696    -2.1007     0.0014 C.ar    
   7 C7            -1.1954    -0.7215     0.0154 C.ar    
   8 O8             1.0264     2.0958     0.0035 O.2     
   9 N9            -1.1942     2.1317     0.0193 N.am    
  10 C10            0.0601    -4.2799    -0.0231 C.3     
  11 O11           -2.0577    -1.5373     6.2765 O.3     
  12 C12           -2.2853    -1.6233     7.6956 C.3     
  13 O13           -2.7835    -2.9612     7.8818 O.3     
  14 C14           -2.2579    -3.6935     6.8560 C.ar    
  15 C15           -1.8126    -2.8173     5.8687 C.ar    
  16 C16           -2.1201    -5.0589     6.6824 C.ar    
  17 C17           -1.5397    -5.5674     5.5242 C.ar    
  18 C18           -1.1063    -4.6826     4.5415 C.ar    
  19 C19           -1.2367    -3.3204     4.7143 C.ar    
  20 O20           -1.2967    -6.8609     5.1663 O.3     
  21 C21           -0.5601    -5.5230     3.4184 C.3     
  22 C22           -1.0850    -6.9282     3.7429 C.3     
  23 N23            0.0798    -4.7765     1.3550 N.am    
  24 C24           -1.0282    -5.0473     2.0733 C.2     
  25 C25            0.9380    -5.4862     3.3541 C.ar    
  26 C26            1.9366    -5.7981     4.2495 C.ar    
  27 C27            3.2636    -5.6564     3.8845 C.ar    
  28 C28            3.5844    -5.2001     2.6189 C.ar    
  29 C29            2.5877    -4.8854     1.7189 C.ar    
  30 C30            1.2492    -5.0254     2.0775 C.ar    
  31 O31           -2.1779    -4.9301     1.7051 O.2     
  32 S32           -2.6520     4.5433     0.0393 S.3     
  33 C33           -1.2130     3.5213     0.0269 C.2     
  34 N34           -0.1724     4.3037     0.0263 N.2     
  35 N35           -0.3761     5.5481     0.0340 N.2     
  36 C36           -1.6021     5.9618     0.0421 C.2     
  37 C37           -2.0534     7.3997     0.0520 C.3     
  38 C38           -1.6119     8.2705     1.2300 C.3     
  39 C39           -0.9856     8.4766    -0.1507 C.3     
  40 H40            2.1486    -0.1395    -0.0195 H       
  41 H41            2.1706    -2.5989    -0.0327 H       
  42 H42           -2.0953    -2.6570     0.0068 H       
  43 H43           -2.1398    -0.1980     0.0321 H       
  44 H44           -2.0276     1.6353     0.0206 H       
  45 H45           -0.8298    -4.6522    -0.5307 H       
  46 H46            0.9499    -4.6279    -0.5476 H       
  47 H47           -1.3529    -1.4823     8.2422 H       
  48 H48           -3.0289    -0.8906     8.0092 H       
  49 H49           -2.4652    -5.7349     7.4507 H       
  50 H50           -0.8890    -2.6444     3.9472 H       
  51 H51           -0.3405    -7.6857     3.4977 H       
  52 H52           -2.0221    -7.1216     3.2209 H       
  53 H53            1.6837    -6.1541     5.2373 H       
  54 H54            4.0471    -5.9018     4.5862 H       
  55 H55            4.6203    -5.0894     2.3342 H       
  56 H56            2.8462    -4.5292     0.7327 H       
  57 H57           -3.0418     7.5851    -0.3683 H       
  58 H58           -2.3098     9.0291     1.5844 H       
  59 H59           -0.9951     7.8034     1.9978 H       
  60 H60            0.0432     8.1451    -0.2912 H       
  61 H61           -1.2715     9.3708    -0.7046 H       
@<TRIPOS>BOND
   1    1    2 1
   2    1    8 2
   3    1    9 am
   4    2    3 ar
   5    2    7 ar
   6    3    4 ar
   7    3   40 1
   8    4    5 ar
   9    4   41 1
  10    5    6 ar
  11    5   10 1
  12    6    7 ar
  13    6   42 1
  14    7   43 1
  15    9   33 1
  16    9   44 1
  17   10   23 1
  18   10   45 1
  19   10   46 1
  20   11   12 1
  21   11   15 1
  22   12   13 1
  23   12   47 1
  24   12   48 1
  25   13   14 1
  26   14   15 ar
  27   14   16 ar
  28   15   19 ar
  29   16   17 ar
  30   16   49 1
  31   17   18 ar
  32   17   20 1
  33   18   19 ar
  34   18   21 1
  35   19   50 1
  36   20   22 1
  37   21   22 1
  38   21   24 1
  39   21   25 1
  40   22   51 1
  41   22   52 1
  42   23   24 am
  43   23   30 1
  44   24   31 2
  45   25   26 ar
  46   25   30 ar
  47   26   27 ar
  48   26   53 1
  49   27   28 ar
  50   27   54 1
  51   28   29 ar
  52   28   55 1
  53   29   30 ar
  54   29   56 1
  55   32   33 1
  56   32   36 1
  57   33   34 2
  58   34   35 1
  59   35   36 2
  60   36   37 1
  61   37   38 1
  62   37   39 1
  63   37   57 1
  64   38   39 1
  65   38   58 1
  66   38   59 1
  67   39   60 1
  68   39   61 1

#	End of record

