#	Name: ASD01812780
#	Creating user name:	WinNT
#	Creation time:	15. 06. 2019 19:29

#	Modifying user name:	WinNT
#	Modification time:	15. 06. 2019 19:29

#	Program:	/corina/corina34_cracker 3.40 0067  02.08.2006

@<TRIPOS>MOLECULE
ASD01812780
  53   57    0    0    0
SMALL
NO_CHARGES


@<TRIPOS>ATOM
   1 N1             0.0028     1.3186    -0.2240 N.ar    
   2 C2             0.0320     0.0059    -0.3480 C.ar    
   3 C3             1.2342    -0.6842    -0.3698 C.ar    
   4 C4             2.4114     0.0205    -0.2596 C.ar    
   5 C5             2.3615     1.4132    -0.1287 C.ar    
   6 C6             1.1073     2.0396    -0.1149 C.ar    
   7 C7             3.8682    -0.3580    -0.2428 C.3     
   8 N8             4.6152     0.8975    -0.0961 N.am    
   9 C9             3.7395     1.9162    -0.0308 C.2     
  10 C10            6.0736     1.0203    -0.0311 C.3     
  11 C11            6.6253     1.1968    -1.4223 C.ar    
  12 C12            6.7726     2.4672    -1.9492 C.ar    
  13 C13            7.2774     2.6346    -3.2229 C.ar    
  14 C14            7.6393     1.5212    -3.9778 C.ar    
  15 C15            7.4893     0.2440    -3.4422 C.ar    
  16 C16            6.9880     0.0882    -2.1656 C.ar    
  17 O17            1.0259     3.3855     0.0100 O.3     
  18 O18            4.0442     3.0870     0.0912 O.2     
  19 C19            8.1824     1.6951    -5.3486 C.2     
  20 C20           -0.2021     3.9617    -0.0802 C.ar    
  21 C21           -2.7027     5.1340    -0.2647 C.ar    
  22 C22           -1.8988     5.0410    -1.3853 C.ar    
  23 C23           -0.6498     4.4560    -1.2957 C.ar    
  24 C24           -1.0135     4.0511     1.0444 C.ar    
  25 C25           -2.2623     4.6375     0.9487 C.ar    
  26 F26           -0.5832     3.5656     2.2294 F       
  27 C27           -4.0638     5.7729    -0.3664 C.3     
  28 F28           -5.0150     4.7964    -0.6808 F       
  29 F29           -4.3924     6.3675     0.8565 F       
  30 F30           -4.0474     6.7479    -1.3696 F       
  31 C31            8.5693     0.6975    -6.1951 C.2     
  32 C32            8.3863     2.9197    -6.0139 C.2     
  33 N33            8.8759     2.6619    -7.1977 N.2     
  34 N34            8.9953     1.2738    -7.3371 N.pl3   
  35 C35            9.5007     0.5695    -8.5181 C.3     
  36 H36           -0.8957    -0.5404    -0.4336 H       
  37 H37            1.2468    -1.7593    -0.4714 H       
  38 H38            4.0745    -1.0176     0.6001 H       
  39 H39            4.1390    -0.8481    -1.1780 H       
  40 H40            6.3386     1.8850     0.5773 H       
  41 H41            6.4945     0.1193     0.4151 H       
  42 H42            6.4917     3.3298    -1.3631 H       
  43 H43            7.3913     3.6269    -3.6336 H       
  44 H44            7.7684    -0.6225    -4.0233 H       
  45 H45            6.8748    -0.9013    -1.7480 H       
  46 H46           -2.2456     5.4296    -2.3314 H       
  47 H47           -0.0227     4.3844    -2.1721 H       
  48 H48           -2.8924     4.7114     1.8227 H       
  49 H49            8.5399    -0.3621    -5.9878 H       
  50 H50            8.1749     3.9008    -5.6152 H       
  51 H51            8.6723     0.3472    -9.1908 H       
  52 H52           10.2278     1.1979    -9.0324 H       
  53 H53            9.9780    -0.3607    -8.2098 H       
@<TRIPOS>BOND
   1    1    2 ar
   2    1    6 ar
   3    2    3 ar
   4    2   36 1
   5    3    4 ar
   6    3   37 1
   7    4    7 1
   8    4    5 ar
   9    5    6 ar
  10    5    9 1
  11    6   17 1
  12    7    8 1
  13    7   38 1
  14    7   39 1
  15    8    9 am
  16    8   10 1
  17    9   18 2
  18   10   11 1
  19   10   40 1
  20   10   41 1
  21   11   12 ar
  22   11   16 ar
  23   12   13 ar
  24   12   42 1
  25   13   14 ar
  26   13   43 1
  27   14   15 ar
  28   14   19 1
  29   15   16 ar
  30   15   44 1
  31   16   45 1
  32   17   20 1
  33   19   32 1
  34   19   31 2
  35   20   24 ar
  36   20   23 ar
  37   21   22 ar
  38   21   25 ar
  39   21   27 1
  40   22   23 ar
  41   22   46 1
  42   23   47 1
  43   24   25 ar
  44   24   26 1
  45   25   48 1
  46   27   28 1
  47   27   29 1
  48   27   30 1
  49   31   34 1
  50   31   49 1
  51   32   33 2
  52   32   50 1
  53   33   34 1
  54   34   35 1
  55   35   51 1
  56   35   52 1
  57   35   53 1

#	End of record

