#	Name: ASD03731137
#	Creating user name:	WinNT
#	Creation time:	15. 06. 2019 20:45

#	Modifying user name:	WinNT
#	Modification time:	15. 06. 2019 20:45

#	Program:	/corina/corina34_cracker 3.40 0067  02.08.2006

@<TRIPOS>MOLECULE
ASD03731137
  43   48    0    0    0
SMALL
NO_CHARGES


@<TRIPOS>ATOM
   1 O1            -0.0162     1.3445     0.0094 O.3     
   2 C2             0.0021    -0.0041     0.0020 C.2     
   3 C3             1.3061    -0.4089    -0.0126 C.2     
   4 C4             2.0907     0.7563    -0.0138 C.2     
   5 C5             1.2421     1.8067    -0.0001 C.2     
   6 C6            -1.1451    -0.8612     0.0084 C.1     
   7 N7            -2.0551    -1.5411     0.0134 N.1     
   8 C8             1.6435     3.2593     0.0039 C.3     
   9 O9            -1.2296     1.1550    -6.2418 O.3     
  10 C10           -1.4575     1.2988    -7.6562 C.3     
  11 O11           -1.6045     2.7196    -7.8366 O.3     
  12 C12           -0.8894     3.2928    -6.8242 C.ar    
  13 C13           -0.6601     2.3305    -5.8434 C.ar    
  14 C14           -0.4068     4.5785    -6.6579 C.ar    
  15 C15            0.3073     4.9211    -5.5136 C.ar    
  16 C16            0.5228     3.9534    -4.5371 C.ar    
  17 C17            0.0483     2.6690    -4.7027 C.ar    
  18 O18            0.8772     6.1102    -5.1650 O.3     
  19 C19            1.2871     4.6259    -3.4282 C.3     
  20 C20            1.1285     6.1189    -3.7465 C.3     
  21 N21            1.7598     3.7375    -1.3760 N.am    
  22 C22            0.7418     4.2815    -2.0722 C.2     
  23 C23            2.7281     4.2108    -3.3946 C.ar    
  24 C24            3.7544     4.2616    -4.3113 C.ar    
  25 C25            5.0095     3.7877    -3.9733 C.ar    
  26 C26            5.2305     3.2625    -2.7131 C.ar    
  27 C27            4.2055     3.2086    -1.7917 C.ar    
  28 C28            2.9389     3.6837    -2.1232 C.ar    
  29 O29           -0.3922     4.4585    -1.6800 O.2     
  30 H30            1.6647    -1.4276    -0.0212 H       
  31 H31            3.1696     0.8032    -0.0236 H       
  32 H32            0.8876     3.8437     0.5285 H       
  33 H33            2.6032     3.3696     0.5088 H       
  34 H34           -0.6027     0.9274    -8.2214 H       
  35 H35           -2.3687     0.7789    -7.9521 H       
  36 H36           -0.5854     5.3214    -7.4212 H       
  37 H37            0.2293     1.9254    -3.9406 H       
  38 H38            2.0454     6.6627    -3.5191 H       
  39 H39            0.2819     6.5421    -3.2059 H       
  40 H40            3.5795     4.6719    -5.2949 H       
  41 H41            5.8149     3.8282    -4.6917 H       
  42 H42            6.2103     2.8925    -2.4493 H       
  43 H43            4.3857     2.7966    -0.8098 H       
@<TRIPOS>BOND
   1    1    2 1
   2    1    5 1
   3    2    3 2
   4    2    6 1
   5    3    4 1
   6    3   30 1
   7    4    5 2
   8    4   31 1
   9    5    8 1
  10    6    7 3
  11    8   21 1
  12    8   32 1
  13    8   33 1
  14    9   10 1
  15    9   13 1
  16   10   11 1
  17   10   34 1
  18   10   35 1
  19   11   12 1
  20   12   13 ar
  21   12   14 ar
  22   13   17 ar
  23   14   15 ar
  24   14   36 1
  25   15   16 ar
  26   15   18 1
  27   16   17 ar
  28   16   19 1
  29   17   37 1
  30   18   20 1
  31   19   20 1
  32   19   22 1
  33   19   23 1
  34   20   38 1
  35   20   39 1
  36   21   22 am
  37   21   28 1
  38   22   29 2
  39   23   24 ar
  40   23   28 ar
  41   24   25 ar
  42   24   40 1
  43   25   26 ar
  44   25   41 1
  45   26   27 ar
  46   26   42 1
  47   27   28 ar
  48   27   43 1

#	End of record

