#	Name: ASD03180026
#	Creating user name:	WinNT
#	Creation time:	15. 06. 2019 20:33

#	Modifying user name:	WinNT
#	Modification time:	15. 06. 2019 20:33

#	Program:	/corina/corina34_cracker 3.40 0067  02.08.2006

@<TRIPOS>MOLECULE
ASD03180026
  51   53    0    0    0
SMALL
NO_CHARGES


@<TRIPOS>ATOM
   1 C1             7.4415     3.6369     1.7857 C.ar    
   2 C2             7.2002     4.9759     2.0300 C.ar    
   3 C3             5.9925     5.5390     1.6621 C.ar    
   4 C4             5.0263     4.7631     1.0494 C.ar    
   5 C5             5.2680     3.4243     0.8042 C.ar    
   6 C6             6.4752     2.8609     1.1735 C.ar    
   7 S7             4.0360     2.4350     0.0243 S.o2    
   8 O8             2.7832     3.0140     0.3625 O.2     
   9 N9             4.2145     2.6286    -1.6106 N.am    
  10 O10            4.3690     1.0828     0.3070 O.2     
  11 C11            3.4095     3.6243    -2.3225 C.3     
  12 C12            5.1774     1.8042    -2.3451 C.3     
  13 C13            4.4596     0.6452    -2.9872 C.ar    
  14 C14            4.1920     4.9061    -2.4484 C.2     
  15 N15            3.6474     5.9697    -3.0718 N.am    
  16 C16            4.4092     7.1276    -3.2764 C.ar    
  17 O17            5.3120     4.9806    -1.9886 O.2     
  18 C18            4.0099     0.7477    -4.2905 C.ar    
  19 C19            3.3518    -0.3147    -4.8805 C.ar    
  20 C20            3.1430    -1.4821    -4.1659 C.ar    
  21 C21            3.5938    -1.5836    -2.8607 C.ar    
  22 C22            4.2563    -0.5218    -2.2745 C.ar    
  23 C23            4.2331     7.8800    -4.4301 C.ar    
  24 C24            4.9837     9.0215    -4.6314 C.ar    
  25 C25            5.9141     9.4168    -3.6818 C.ar    
  26 C26            6.0915     8.6653    -2.5284 C.ar    
  27 C27            5.3364     7.5262    -2.3231 C.ar    
  28 Cl28           7.2566     9.1602    -1.3404 Cl      
  29 F29            2.4994    -2.5211    -4.7416 F       
  30 O30            6.6532    10.5409    -3.8811 O.3     
  31 C31            6.4190    11.2654    -5.0903 C.3     
  32 H32            8.3868     3.1981     2.0691 H       
  33 H33            7.9551     5.5821     2.5087 H       
  34 H34            5.8037     6.5849     1.8536 H       
  35 H35            4.0825     5.2028     0.7626 H       
  36 H36            6.6638     1.8149     0.9823 H       
  37 H37            3.1637     3.2497    -3.3162 H       
  38 H38            2.4905     3.8127    -1.7676 H       
  39 H39            5.6576     2.4065    -3.1163 H       
  40 H40            5.9329     1.4269    -1.6558 H       
  41 H41            2.7280     5.9335    -3.3788 H       
  42 H42            4.1726     1.6585    -4.8475 H       
  43 H43            3.0003    -0.2343    -5.8985 H       
  44 H44            3.4315    -2.4937    -2.3023 H       
  45 H45            4.6116    -0.6022    -1.2578 H       
  46 H46            3.5092     7.5722    -5.1702 H       
  47 H47            4.8464     9.6065    -5.5289 H       
  48 H48            5.4707     6.9438    -1.4235 H       
  49 H49            6.6275    10.6224    -5.9454 H       
  50 H50            5.3787    11.5891    -5.1243 H       
  51 H51            7.0721    12.1374    -5.1237 H       
@<TRIPOS>BOND
   1    1    2 ar
   2    1    6 ar
   3    1   32 1
   4    2    3 ar
   5    2   33 1
   6    3    4 ar
   7    3   34 1
   8    4    5 ar
   9    4   35 1
  10    5    6 ar
  11    5    7 1
  12    6   36 1
  13    7    8 2
  14    7    9 am
  15    7   10 2
  16    9   11 1
  17    9   12 1
  18   11   14 1
  19   11   37 1
  20   11   38 1
  21   12   13 1
  22   12   39 1
  23   12   40 1
  24   13   18 ar
  25   13   22 ar
  26   14   15 am
  27   14   17 2
  28   15   16 1
  29   15   41 1
  30   16   23 ar
  31   16   27 ar
  32   18   19 ar
  33   18   42 1
  34   19   20 ar
  35   19   43 1
  36   20   21 ar
  37   20   29 1
  38   21   22 ar
  39   21   44 1
  40   22   45 1
  41   23   24 ar
  42   23   46 1
  43   24   25 ar
  44   24   47 1
  45   25   26 ar
  46   25   30 1
  47   26   27 ar
  48   26   28 1
  49   27   48 1
  50   30   31 1
  51   31   49 1
  52   31   50 1
  53   31   51 1

#	End of record

