#	Name: ASD02030670
#	Creating user name:	WinNT
#	Creation time:	15. 06. 2019 20:15

#	Modifying user name:	WinNT
#	Modification time:	15. 06. 2019 20:15

#	Program:	/corina/corina34_cracker 3.40 0067  02.08.2006

@<TRIPOS>MOLECULE
ASD02030670
  53   55    0    0    0
SMALL
NO_CHARGES


@<TRIPOS>ATOM
   1 N1            -0.2771     1.7162    -0.0374 N.am    
   2 C2            -0.2338     0.3701    -0.0880 C.2     
   3 C3            -1.4767    -0.4142     0.0500 C.ar    
   4 O4             0.8293    -0.1984    -0.2473 O.2     
   5 C5            -1.4339    -1.8098    -0.0021 C.ar    
   6 C6            -2.5959    -2.5378     0.1270 C.ar    
   7 C7            -3.8097    -1.8861     0.3090 C.ar    
   8 C8            -3.8567    -0.4982     0.3610 C.ar    
   9 C9            -2.6985     0.2369     0.2389 C.ar    
  10 O10           -4.9530    -2.6075     0.4359 O.3     
  11 C11           -5.0699    -3.3803     1.5330 C.2     
  12 N12           -6.1305    -4.2006     1.6696 N.am    
  13 O13           -4.2192    -3.3378     2.3996 O.2     
  14 C14            0.9122     2.4559    -0.0436 C.ar    
  15 C15            0.9573     3.6934    -0.6844 C.ar    
  16 C16            2.1181     4.4327    -0.6996 C.ar    
  17 C17            3.2610     3.9469    -0.0724 C.ar    
  18 C18            3.2197     2.6991     0.5750 C.ar    
  19 C19            2.0355     1.9592     0.5902 C.ar    
  20 N20            4.5410     4.4381     0.0744 N.pl3   
  21 C21            5.3007     3.5502     0.7859 C.2     
  22 C22            4.5605     2.4826     1.1242 C.2     
  23 C23           -6.2577    -5.0411     2.8627 C.3     
  24 C24           -7.6086    -4.7774     3.5307 C.3     
  25 C25           -6.1665    -6.5145     2.4607 C.3     
  26 C26           -7.1563    -4.2518     0.6248 C.3     
  27 C27           -7.8306    -2.8837     0.5047 C.3     
  28 C28           -6.5061    -4.6189    -0.7107 C.3     
  29 H29           -1.1321     2.1728    -0.0007 H       
  30 H30           -0.4910    -2.3169    -0.1438 H       
  31 H31           -2.5637    -3.6165     0.0865 H       
  32 H32           -4.8021     0.0044     0.5022 H       
  33 H33           -2.7358     1.3155     0.2797 H       
  34 H34            0.0733     4.0752    -1.1735 H       
  35 H35            2.1419     5.3900    -1.1989 H       
  36 H36            2.0000     1.0008     1.0868 H       
  37 H37            4.8559     5.2864    -0.2749 H       
  38 H38            6.3404     3.6902     1.0423 H       
  39 H39            4.8929     1.6229     1.6870 H       
  40 H40           -5.4548    -4.8046     3.5610 H       
  41 H41           -8.4112    -5.0978     2.8664 H       
  42 H42           -7.6666    -5.3347     4.4657 H       
  43 H43           -7.7106    -3.7118     3.7360 H       
  44 H44           -6.9137    -6.7296     1.6968 H       
  45 H45           -5.1723    -6.7224     2.0652 H       
  46 H46           -6.3485    -7.1413     3.3337 H       
  47 H47           -7.9021    -5.0030     0.8844 H       
  48 H48           -7.0732    -2.1192     0.3316 H       
  49 H49           -8.5317    -2.8962    -0.3298 H       
  50 H50           -8.3675    -2.6611     1.4269 H       
  51 H51           -6.0963    -5.6271    -0.6503 H       
  52 H52           -7.2541    -4.5775    -1.5024 H       
  53 H53           -5.7047    -3.9136    -0.9307 H       
@<TRIPOS>BOND
   1    1    2 am
   2    1   14 1
   3    1   29 1
   4    2    3 1
   5    2    4 2
   6    3    5 ar
   7    3    9 ar
   8    5    6 ar
   9    5   30 1
  10    6    7 ar
  11    6   31 1
  12    7    8 ar
  13    7   10 1
  14    8    9 ar
  15    8   32 1
  16    9   33 1
  17   10   11 1
  18   11   12 am
  19   11   13 2
  20   12   23 1
  21   12   26 1
  22   14   15 ar
  23   14   19 ar
  24   15   16 ar
  25   15   34 1
  26   16   17 ar
  27   16   35 1
  28   17   18 ar
  29   17   20 1
  30   18   19 ar
  31   18   22 1
  32   19   36 1
  33   20   21 1
  34   20   37 1
  35   21   22 2
  36   21   38 1
  37   22   39 1
  38   23   24 1
  39   23   25 1
  40   23   40 1
  41   24   41 1
  42   24   42 1
  43   24   43 1
  44   25   44 1
  45   25   45 1
  46   25   46 1
  47   26   27 1
  48   26   28 1
  49   26   47 1
  50   27   48 1
  51   27   49 1
  52   27   50 1
  53   28   51 1
  54   28   52 1
  55   28   53 1

#	End of record

