#	Name: ASD06170060
#	Creating user name:	WinNT
#	Creation time:	15. 06. 2019 21:05

#	Modifying user name:	WinNT
#	Modification time:	15. 06. 2019 21:05

#	Program:	/corina/corina34_cracker 3.40 0067  02.08.2006

@<TRIPOS>MOLECULE
ASD06170060
  72   77    0    0    0
SMALL
NO_CHARGES


@<TRIPOS>ATOM
   1 N1            -0.0909     1.4343    -0.3163 N.pl3   
   2 N2            -0.0435     0.0727    -0.0027 N.am    
   3 C3             1.2374    -0.2646     0.2542 C.2     
   4 C4             2.0337     0.9619     0.0902 C.2     
   5 C5             1.1471     1.9613    -0.2603 C.2     
   6 C6             3.4848     1.0969     0.2656 C.2     
   7 O7             4.0200     2.1769     0.0981 O.2     
   8 N8             4.2243     0.0248     0.6121 N.am    
   9 C9            -1.1402    -0.7944     0.0383 C.ar    
  10 C10           -2.0900    -0.7636    -0.9745 C.ar    
  11 C11           -3.1714    -1.6214    -0.9313 C.ar    
  12 C12           -3.3094    -2.5101     0.1192 C.ar    
  13 C13           -2.3655    -2.5433     1.1292 C.ar    
  14 C14           -1.2787    -1.6920     1.0890 C.ar    
  15 O15            1.6525    -1.3665     0.5615 O.2     
  16 C16           -1.3061     2.1763    -0.6608 C.3     
  17 O17           -1.0467     3.7830     1.1771 O.3     
  18 C18           -1.6830     4.9596     1.1933 C.2     
  19 N19           -2.9276     4.9095     0.6992 N.am    
  20 C20           -3.2175     3.5302     0.2784 C.3     
  21 C21           -1.9216     2.7653     0.6101 C.3     
  22 O22           -1.1787     5.9803     1.6179 O.2     
  23 C23           -3.8492     6.0435     0.5952 C.3     
  24 C24            1.5050     3.3993    -0.5346 C.3     
  25 C25            5.6220     0.1100     0.6159 C.ar    
  26 C26            6.2428     1.3328     0.8359 C.ar    
  27 C27            7.6225     1.4157     0.8399 C.ar    
  28 C28            8.3873     0.2756     0.6238 C.ar    
  29 C29            7.7665    -0.9445     0.4042 C.ar    
  30 C30            6.3876    -1.0289     0.4053 C.ar    
  31 O31            9.7448     0.3568     0.6272 O.3     
  32 N32           11.6237     0.8565     4.2643 N.ar    
  33 C33           10.3133     0.8658     4.1915 C.ar    
  34 C34            9.6458     0.7009     2.9847 C.ar    
  35 C35           10.3695     0.5207     1.8189 C.ar    
  36 C36           11.7801     0.5124     1.9091 C.ar    
  37 C37           12.5806     0.3355     0.7712 C.ar    
  38 C38           13.9363     0.3327     0.8905 C.ar    
  39 C39           14.5448     0.5044     2.1372 C.ar    
  40 C40           13.7865     0.6798     3.2726 C.ar    
  41 C41           12.3858     0.6872     3.1773 C.ar    
  42 O42           15.9000     0.4977     2.2294 O.3     
  43 C43           16.6318     0.3110     1.0163 C.3     
  44 F44            8.2273     2.6048     1.0534 F       
  45 H45            3.7884    -0.8059     0.8589 H       
  46 H46           -1.9831    -0.0693    -1.7949 H       
  47 H47           -3.9104    -1.5980    -1.7186 H       
  48 H48           -4.1564    -3.1794     0.1510 H       
  49 H49           -2.4762    -3.2385     1.9483 H       
  50 H50           -0.5397    -1.7213     1.8760 H       
  51 H51           -1.0564     2.9824    -1.3508 H       
  52 H52           -2.0216     1.5028    -1.1326 H       
  53 H53           -4.0565     3.1255     0.8444 H       
  54 H54           -3.4218     3.4913    -0.7916 H       
  55 H55           -2.1157     1.9788     1.3394 H       
  56 H56           -3.3665     6.9407     0.9826 H       
  57 H57           -4.1186     6.1981    -0.4496 H       
  58 H58           -4.7483     5.8354     1.1752 H       
  59 H59            1.4509     3.9704     0.3923 H       
  60 H60            2.5175     3.4517    -0.9350 H       
  61 H61            0.8056     3.8159    -1.2594 H       
  62 H62            5.6478     2.2184     1.0034 H       
  63 H63            8.3613    -1.8302     0.2363 H       
  64 H64            5.9049    -1.9805     0.2383 H       
  65 H65            9.7381     1.0056     5.0949 H       
  66 H66            8.5662     0.7125     2.9563 H       
  67 H67           12.1223     0.2015    -0.1975 H       
  68 H68           14.5491     0.1959     0.0118 H       
  69 H69           14.2664     0.8109     4.2312 H       
  70 H70           16.3636    -0.6485     0.5741 H       
  71 H71           16.3897     1.1129     0.3188 H       
  72 H72           17.7004     0.3263     1.2306 H       
@<TRIPOS>BOND
   1    1    2 1
   2    1    5 1
   3    1   16 1
   4    2    3 am
   5    2    9 1
   6    3    4 1
   7    3   15 2
   8    4    5 2
   9    4    6 1
  10    5   24 1
  11    6    7 2
  12    6    8 am
  13    8   25 1
  14    8   45 1
  15    9   10 ar
  16    9   14 ar
  17   10   11 ar
  18   10   46 1
  19   11   12 ar
  20   11   47 1
  21   12   13 ar
  22   12   48 1
  23   13   14 ar
  24   13   49 1
  25   14   50 1
  26   16   21 1
  27   16   51 1
  28   16   52 1
  29   17   18 1
  30   17   21 1
  31   18   19 am
  32   18   22 2
  33   19   20 1
  34   19   23 1
  35   20   21 1
  36   20   53 1
  37   20   54 1
  38   21   55 1
  39   23   56 1
  40   23   57 1
  41   23   58 1
  42   24   59 1
  43   24   60 1
  44   24   61 1
  45   25   26 ar
  46   25   30 ar
  47   26   27 ar
  48   26   62 1
  49   27   28 ar
  50   27   44 1
  51   28   29 ar
  52   28   31 1
  53   29   30 ar
  54   29   63 1
  55   30   64 1
  56   31   35 1
  57   32   33 ar
  58   32   41 ar
  59   33   34 ar
  60   33   65 1
  61   34   35 ar
  62   34   66 1
  63   35   36 ar
  64   36   37 ar
  65   36   41 ar
  66   37   38 ar
  67   37   67 1
  68   38   39 ar
  69   38   68 1
  70   39   40 ar
  71   39   42 1
  72   40   41 ar
  73   40   69 1
  74   42   43 1
  75   43   70 1
  76   43   71 1
  77   43   72 1

#	End of record

