#	Name: ASD03110036
#	Creating user name:	WinNT
#	Creation time:	15. 06. 2019 20:33

#	Modifying user name:	WinNT
#	Modification time:	15. 06. 2019 20:33

#	Program:	/corina/corina34_cracker 3.40 0067  02.08.2006

@<TRIPOS>MOLECULE
ASD03110036
  57   58    0    0    0
SMALL
NO_CHARGES


@<TRIPOS>ATOM
   1 C1             0.0133     1.7363     0.1994 C.3     
   2 C2            -0.1303     0.2130     0.1271 C.3     
   3 C3             0.5208    -0.4096     1.3660 C.3     
   4 C4            -0.1282     0.1762     2.6228 C.3     
   5 O5             0.0141     1.5981     2.6121 O.3     
   6 C6            -0.6160     2.2392     1.5012 C.3     
   7 O7            -1.5157    -0.1352     0.0891 O.3     
   8 C8            -0.4235     3.7532     1.6095 C.3     
   9 O9            -1.1094     4.2392     2.7651 O.3     
  10 O10            0.3294    -1.8255     1.3455 O.3     
  11 O11           -1.5160    -0.1637     2.6451 O.3     
  12 C12           -2.1388     0.0193     3.9181 C.3     
  13 C13           -2.0289    -1.2728     4.7302 C.3     
  14 C14           -3.6141     0.3720     3.7182 C.3     
  15 C15           -0.5588    -1.5500     5.0510 C.3     
  16 C16           -0.4592    -2.7614     5.9802 C.3     
  17 C17            1.0109    -3.0386     6.3010 C.3     
  18 C18           -3.7315     1.5883     2.7929 C.3     
  19 O19           -4.2943    -0.7324     3.1102 O.3     
  20 C20           -5.5883    -0.5289     2.7804 C.2     
  21 C21           -6.0412     0.7729     2.4601 C.2     
  22 C22           -5.1856     1.8106     2.4582 C.2     
  23 O23           -6.3647    -1.4654     2.7584 O.2     
  24 O24            1.3983     2.0872     0.1719 O.3     
  25 C25            1.9190     2.2958    -1.1425 C.3     
  26 O26           -5.6270     3.0482     2.1579 O.3     
  27 C27           -7.0384     3.1872     1.8466 C.3     
  28 H28           -0.4946     2.1909    -0.6512 H       
  29 H29            0.3650    -0.1577    -0.7703 H       
  30 H30            1.5876    -0.1862     1.3680 H       
  31 H31            0.3603    -0.2314     3.5078 H       
  32 H32           -1.6810     2.0069     1.5036 H       
  33 H33           -1.6809    -1.0869     0.0428 H       
  34 H34            0.6393     3.9791     1.6960 H       
  35 H35           -0.8261     4.2353     0.7186 H       
  36 H36           -1.0304     5.1939     2.8969 H       
  37 H37            0.7170    -2.2859     2.1024 H       
  38 H38           -1.6412     0.8281     4.4532 H       
  39 H39           -2.5897    -1.1672     5.6588 H       
  40 H40           -2.4369    -2.1014     4.1514 H       
  41 H41           -4.0696     0.6000     4.6818 H       
  42 H42           -0.0177    -1.7551     4.1273 H       
  43 H43           -0.1235    -0.6792     5.5413 H       
  44 H44           -1.0002    -2.5563     6.9039 H       
  45 H45           -0.8945    -3.6322     5.4898 H       
  46 H46            1.5520    -3.2437     5.3773 H       
  47 H47            1.4462    -2.1679     6.7913 H       
  48 H48            1.0818    -3.9016     6.9630 H       
  49 H49           -3.3341     2.4696     3.2964 H       
  50 H50           -3.1700     1.4054     1.8767 H       
  51 H51           -7.0807     0.9342     2.2152 H       
  52 H52            1.8069     1.3826    -1.7268 H       
  53 H53            1.3723     3.1057    -1.6255 H       
  54 H54            2.9749     2.5583    -1.0775 H       
  55 H55           -7.2819     2.5714     0.9809 H       
  56 H56           -7.6325     2.8637     2.7013 H       
  57 H57           -7.2603     4.2309     1.6241 H       
@<TRIPOS>BOND
   1    1    2 1
   2    1   24 1
   3    1    6 1
   4    1   28 1
   5    2    3 1
   6    2    7 1
   7    2   29 1
   8    3   10 1
   9    3    4 1
  10    3   30 1
  11    4    5 1
  12    4   11 1
  13    4   31 1
  14    5    6 1
  15    6    8 1
  16    6   32 1
  17    7   33 1
  18    8    9 1
  19    8   34 1
  20    8   35 1
  21    9   36 1
  22   10   37 1
  23   11   12 1
  24   12   13 1
  25   12   14 1
  26   12   38 1
  27   13   15 1
  28   13   39 1
  29   13   40 1
  30   14   18 1
  31   14   19 1
  32   14   41 1
  33   15   16 1
  34   15   42 1
  35   15   43 1
  36   16   17 1
  37   16   44 1
  38   16   45 1
  39   17   46 1
  40   17   47 1
  41   17   48 1
  42   18   22 1
  43   18   49 1
  44   18   50 1
  45   19   20 1
  46   20   21 1
  47   20   23 2
  48   21   22 2
  49   21   51 1
  50   22   26 1
  51   24   25 1
  52   25   52 1
  53   25   53 1
  54   25   54 1
  55   26   27 1
  56   27   55 1
  57   27   56 1
  58   27   57 1

#	End of record

