#	Name: ASD01141094
#	Creating user name:	WinNT
#	Creation time:	15. 06. 2019 19:01

#	Modifying user name:	WinNT
#	Modification time:	15. 06. 2019 19:01

#	Program:	/corina/corina34_cracker 3.40 0067  02.08.2006

@<TRIPOS>MOLECULE
ASD01141094
  53   56    0    0    0
SMALL
NO_CHARGES


@<TRIPOS>ATOM
   1 C1             0.2458     1.8132     1.0186 C.ar    
   2 C2             0.0749     0.4364     0.9696 C.ar    
   3 C3             1.4473     2.3836     0.7084 C.ar    
   4 C4             1.1216    -0.3958     0.6037 C.ar    
   5 C5             2.5269     1.5765     0.3348 C.ar    
   6 C6             2.3742     0.1703     0.2783 C.ar    
   7 C7             0.9286    -1.8632     0.5551 C.ar    
   8 C8             3.7924     2.1235     0.0046 C.ar    
   9 N9             3.4143    -0.5919    -0.0802 N.ar    
  10 C10            0.0466    -2.4230    -0.3683 C.ar    
  11 C11            1.6348    -2.6938     1.4315 C.ar    
  12 C12            4.8048     1.2232    -0.3556 C.ar    
  13 N13            4.0177     3.4823     0.0361 N.pl3   
  14 N14            4.5569    -0.0882    -0.3775 N.ar    
  15 C15           -0.1296    -3.7951    -0.4088 C.ar    
  16 C16            1.4498    -4.0658     1.3810 C.ar    
  17 O17            2.5009    -2.1560     2.3302 O.3     
  18 C18            6.1440     1.7253    -0.7110 C.2     
  19 C19            0.5699    -4.6140     0.4675 C.ar    
  20 O20           -0.9898    -4.3424    -1.3086 O.3     
  21 C21            3.1873    -3.0647     3.1935 C.3     
  22 O22            6.3432     2.9224    -0.7906 O.2     
  23 N23            7.1479     0.8578    -0.9477 N.am    
  24 C24           -1.1235    -5.7651    -1.2959 C.3     
  25 H25            3.2708     4.0991    -0.0161 H       
  26 H26            6.9890    -0.0970    -0.8842 H       
  27 C27            8.4792     1.3569    -1.3010 C.3     
  28 C28            9.5117     0.2424    -1.5392 C.3     
  29 C29           10.0352     1.0863    -2.7133 C.3     
  30 C30            8.6304     1.7073    -2.7907 C.3     
  31 C31            8.9710     2.4566    -0.3578 C.3     
  32 H32           -0.5847     2.4427     1.3020 H       
  33 H33           -0.8846     0.0086     1.2197 H       
  34 H34            1.5636     3.4564     0.7512 H       
  35 H35           -0.4984    -1.7871    -1.0502 H       
  36 H36            4.9231     3.8222     0.1104 H       
  37 H37            1.9944    -4.7082     2.0571 H       
  38 H38            0.4288    -5.6842     0.4322 H       
  39 H39            2.4613    -3.6231     3.7844 H       
  40 H40            3.7789    -3.7576     2.5953 H       
  41 H41            3.8453    -2.5063     3.8594 H       
  42 H42           -1.8382    -6.0698    -2.0604 H       
  43 H43           -0.1556    -6.2228    -1.5003 H       
  44 H44           -1.4787    -6.0880    -0.3172 H       
  45 H45           10.2299     0.1316    -0.7267 H       
  46 H46            9.0686    -0.7051    -1.8458 H       
  47 H47           10.8115     1.7965    -2.4286 H       
  48 H48           10.3008     0.4965    -3.5907 H       
  49 H49            7.9464     1.1603    -3.4395 H       
  50 H50            8.6372     2.7791    -2.9886 H       
  51 H51            9.1849     2.0271     0.6209 H       
  52 H52            9.8778     2.9049    -0.7639 H       
  53 H53            8.2007     3.2214    -0.2585 H       
@<TRIPOS>BOND
   1    1    2 ar
   2    1    3 ar
   3    1   32 1
   4    2    4 ar
   5    2   33 1
   6    3    5 ar
   7    3   34 1
   8    4    7 1
   9    4    6 ar
  10    5    6 ar
  11    5    8 ar
  12    6    9 ar
  13    7   10 ar
  14    7   11 ar
  15    8   12 ar
  16    8   13 1
  17    9   14 ar
  18   10   15 ar
  19   10   35 1
  20   11   16 ar
  21   11   17 1
  22   12   18 1
  23   12   14 ar
  24   13   25 1
  25   13   36 1
  26   15   19 ar
  27   15   20 1
  28   16   19 ar
  29   16   37 1
  30   17   21 1
  31   18   22 2
  32   18   23 am
  33   19   38 1
  34   20   24 1
  35   21   39 1
  36   21   40 1
  37   21   41 1
  38   23   26 1
  39   23   27 1
  40   24   42 1
  41   24   43 1
  42   24   44 1
  43   27   28 1
  44   27   31 1
  45   27   30 1
  46   28   29 1
  47   28   45 1
  48   28   46 1
  49   29   30 1
  50   29   47 1
  51   29   48 1
  52   30   49 1
  53   30   50 1
  54   31   51 1
  55   31   52 1
  56   31   53 1

#	End of record

