#	Name: ASD03091120
#	Creating user name:	WinNT
#	Creation time:	15. 06. 2019 20:30

#	Modifying user name:	WinNT
#	Modification time:	15. 06. 2019 20:30

#	Program:	/corina/corina34_cracker 3.40 0067  02.08.2006

@<TRIPOS>MOLECULE
ASD03091120
  36   38    0    0    0
SMALL
NO_CHARGES


@<TRIPOS>ATOM
   1 C1            -0.0339     1.4639    -0.2412 C.2     
   2 C2            -0.0055    -0.0095    -0.1204 C.ar    
   3 C3             1.2142    -0.6888    -0.1204 C.ar    
   4 C4             1.2383    -2.0638    -0.0075 C.ar    
   5 C5             0.0574    -2.7735     0.1063 C.ar    
   6 C6            -1.1621    -2.1069     0.1073 C.ar    
   7 C7            -1.1966    -0.7247    -0.0003 C.ar    
   8 O8             0.4699     2.0044    -1.2064 O.2     
   9 N9            -0.6233     2.2073     0.7161 N.am    
  10 N10            2.4817     0.0660    -0.2420 N.pl3   
  11 O11            3.5367    -0.5307    -0.3629 O.2     
  12 O12            2.4697     1.2837    -0.2211 O.2     
  13 C13           -0.6515     3.6671     0.5964 C.3     
  14 C14           -2.2054    -4.2020    -0.3550 C.3     
  15 N15           -2.3528    -2.8286     0.2220 N.3     
  16 C16           -3.4441    -2.1785    -0.5428 C.3     
  17 C17           -3.9394    -3.2652    -1.5467 C.3     
  18 N18           -2.8255    -3.3794    -2.5402 N.3     
  19 C19           -1.6750    -3.9525    -1.8008 C.3     
  20 C20           -3.7015    -4.5532    -0.6798 C.3     
  21 H21            2.1829    -2.5874    -0.0084 H       
  22 H22            0.0825    -3.8497     0.1943 H       
  23 H23           -2.1430    -0.2043     0.0044 H       
  24 H24           -1.0289     1.7757     1.4843 H       
  25 H25           -1.1784     3.9468    -0.3159 H       
  26 H26           -1.1660     4.0925     1.4580 H       
  27 H27            0.3690     4.0483     0.5580 H       
  28 H28           -1.6455    -4.9180     0.2466 H       
  29 H29           -4.2527    -1.8849     0.1266 H       
  30 H30           -3.0638    -1.3106    -1.0817 H       
  31 H31           -4.9379    -3.1205    -1.9593 H       
  32 H32           -3.0897    -3.9716    -3.3132 H       
  33 H33           -0.8461    -3.2449    -1.7831 H       
  34 H34           -1.3621    -4.8919    -2.2566 H       
  35 H35           -3.7950    -5.4689    -1.2637 H       
  36 H36           -4.3259    -4.5727     0.2135 H       
@<TRIPOS>BOND
   1    1    2 1
   2    1    8 2
   3    1    9 am
   4    2    3 ar
   5    2    7 ar
   6    3    4 ar
   7    3   10 1
   8    4    5 ar
   9    4   21 1
  10    5    6 ar
  11    5   22 1
  12    6    7 ar
  13    6   15 1
  14    7   23 1
  15    9   13 1
  16    9   24 1
  17   10   11 2
  18   10   12 2
  19   13   25 1
  20   13   26 1
  21   13   27 1
  22   14   15 1
  23   14   19 1
  24   14   20 1
  25   14   28 1
  26   15   16 1
  27   16   17 1
  28   16   29 1
  29   16   30 1
  30   17   18 1
  31   17   20 1
  32   17   31 1
  33   18   19 1
  34   18   32 1
  35   19   33 1
  36   19   34 1
  37   20   35 1
  38   20   36 1

#	End of record

