#	Name: ASD08710028
#	Creating user name:	WinNT
#	Creation time:	15. 06. 2019 21:19

#	Modifying user name:	WinNT
#	Modification time:	15. 06. 2019 21:19

#	Program:	/corina/corina34_cracker 3.40 0067  02.08.2006

@<TRIPOS>MOLECULE
ASD08710028
  49   51    0    0    0
SMALL
NO_CHARGES


@<TRIPOS>ATOM
   1 C1             0.2228     1.7192     0.4573 C.ar    
   2 C2             0.1899     0.3406     0.3606 C.ar    
   3 C3             1.4360     2.3810     0.4897 C.ar    
   4 C4             2.6163     1.6643     0.4252 C.ar    
   5 C5             2.5833     0.2857     0.3289 C.ar    
   6 C6             1.3701    -0.3761     0.2961 C.ar    
   7 S7             1.3282    -2.1334     0.1739 S.o2    
   8 O8             0.0633    -2.4669    -0.3811 O.2     
   9 O9             2.5619    -2.5244    -0.4129 O.2     
  10 N10            1.3340    -2.7324     1.7178 N.am    
  11 C11            0.0720    -2.9739     2.4312 C.3     
  12 C12            2.6011    -3.0378     2.3968 C.3     
  13 C13            2.5678    -4.4987     2.8625 C.3     
  14 N14            1.3060    -4.7349     3.5779 N.am    
  15 C15            0.0441    -4.4349     2.8968 C.3     
  16 C16            1.3107    -5.2233     4.8341 C.2     
  17 O17            2.3577    -5.5591     5.3515 O.2     
  18 C18            0.0393    -5.3508     5.5842 C.ar    
  19 C19           -0.5445    -6.6049     5.7455 C.ar    
  20 C20           -1.7338    -6.7083     6.4502 C.ar    
  21 C21           -2.2975    -5.5534     6.9688 C.ar    
  22 C22           -1.6613    -4.3383     6.7697 C.ar    
  23 N23           -0.5309    -4.2694     6.1015 N.ar    
  24 C24            0.1073    -7.8319     5.1619 C.3     
  25 C25            2.7702    -2.1168     3.6068 C.3     
  26 C26            1.4719     3.8839     0.5947 C.3     
  27 F27            1.4983     4.2567     1.9428 F       
  28 F28            2.6172     4.3689    -0.0458 F       
  29 F29            0.3335     4.4214    -0.0155 F       
  30 H30           -0.6993     2.2795     0.5032 H       
  31 H31           -0.7580    -0.1765     0.3357 H       
  32 H32            3.5641     2.1814     0.4497 H       
  33 H33            3.5054    -0.2742     0.2778 H       
  34 H34            0.0083    -2.3131     3.2957 H       
  35 H35           -0.7680    -2.7870     1.7621 H       
  36 H36            3.4310    -2.8931     1.7050 H       
  37 H37            2.6274    -5.1597     1.9979 H       
  38 H38            3.4081    -4.6890     3.5302 H       
  39 H39           -0.7872    -4.5781     3.5871 H       
  40 H40           -0.0733    -5.0945     2.0370 H       
  41 H41           -2.2104    -7.6671     6.5914 H       
  42 H42           -3.2237    -5.5998     7.5223 H       
  43 H43           -2.0978    -3.4362     7.1725 H       
  44 H44            0.8590    -8.2088     5.8555 H       
  45 H45           -0.6483    -8.5992     4.9930 H       
  46 H46            0.5826    -7.5754     4.2151 H       
  47 H47            1.9423    -2.2706     4.2989 H       
  48 H48            3.7105    -2.3452     4.1086 H       
  49 H49            2.7783    -1.0786     3.2749 H       
@<TRIPOS>BOND
   1    1    2 ar
   2    1    3 ar
   3    1   30 1
   4    2    6 ar
   5    2   31 1
   6    3    4 ar
   7    3   26 1
   8    4    5 ar
   9    4   32 1
  10    5    6 ar
  11    5   33 1
  12    6    7 1
  13    7    8 2
  14    7    9 2
  15    7   10 am
  16   10   11 1
  17   10   12 1
  18   11   15 1
  19   11   34 1
  20   11   35 1
  21   12   13 1
  22   12   25 1
  23   12   36 1
  24   13   14 1
  25   13   37 1
  26   13   38 1
  27   14   15 1
  28   14   16 am
  29   15   39 1
  30   15   40 1
  31   16   17 2
  32   16   18 1
  33   18   19 ar
  34   18   23 ar
  35   19   20 ar
  36   19   24 1
  37   20   21 ar
  38   20   41 1
  39   21   22 ar
  40   21   42 1
  41   22   23 ar
  42   22   43 1
  43   24   44 1
  44   24   45 1
  45   24   46 1
  46   25   47 1
  47   25   48 1
  48   25   49 1
  49   26   27 1
  50   26   28 1
  51   26   29 1

#	End of record

