#	Name: ASD01170001
#	Creating user name:	WinNT
#	Creation time:	15. 06. 2019 19:06

#	Modifying user name:	WinNT
#	Modification time:	15. 06. 2019 19:06

#	Program:	/corina/corina34_cracker 3.40 0067  02.08.2006

@<TRIPOS>MOLECULE
ASD01170001
  60   62    0    0    0
SMALL
NO_CHARGES


@<TRIPOS>ATOM
   1 C1             0.4280     1.2448    -0.2305 C.ar    
   2 C2             0.4469    -0.0577    -0.6829 C.ar    
   3 C3             1.2321    -0.4049    -1.7699 C.ar    
   4 C4             2.0021     0.5527    -2.4091 C.ar    
   5 C5             1.9915     1.8584    -1.9659 C.ar    
   6 C6             1.2020     2.2145    -0.8708 C.ar    
   7 C7             0.0051     5.5635     0.4667 C.3     
   8 C8             0.7933     5.5921     1.7791 C.3     
   9 C9             0.8283     7.0267     2.3132 C.3     
  10 C10            1.4538     7.9431     1.2593 C.3     
  11 N11            0.6632     7.8810     0.0234 N.3     
  12 C12            0.6546     6.5223    -0.5337 C.3     
  13 C13            3.0639     9.4526    -2.4261 C.ar    
  14 C14            3.7609    10.5711    -2.0089 C.ar    
  15 C15            4.2268    11.4817    -2.9387 C.ar    
  16 C16            3.9960    11.2737    -4.2857 C.ar    
  17 C17            3.2997    10.1548    -4.7029 C.ar    
  18 C18            2.8326     9.2448    -3.7730 C.ar    
  19 C19            1.1858     3.6122    -0.3912 C.2     
  20 O20            2.2278     4.2277    -0.2767 O.2     
  21 N21            0.0157     4.2046    -0.0807 N.am    
  22 C22           -1.2457     3.4896    -0.2905 C.3     
  23 C23           -1.7886     3.0072     1.0561 C.3     
  24 C24           -3.0217     2.1315     0.8247 C.3     
  25 O25           -3.5287     1.6809     2.0824 O.3     
  26 C26           -4.6872     0.8507     1.9783 C.3     
  27 C27            1.1530     8.8519    -0.9643 C.3     
  28 C28            2.5614     8.4566    -1.4129 C.3     
  29 Cl29           1.2516    -2.0469    -2.3329 Cl      
  30 H30           -0.1877     1.5152     0.6145 H       
  31 H31           -0.1514    -0.8086    -0.1885 H       
  32 H32            2.6124     0.2761    -3.2561 H       
  33 H33            2.5928     2.6041    -2.4647 H       
  34 H34           -1.0231     5.8734     0.6529 H       
  35 H35            0.3091     4.9433     2.5090 H       
  36 H36            1.8110     5.2450     1.6005 H       
  37 H37           -0.1871     7.3596     2.5285 H       
  38 H38            1.4242     7.0610     3.2253 H       
  39 H39            1.4672     8.9677     1.6308 H       
  40 H40            2.4739     7.6179     1.0546 H       
  41 H41            1.6784     6.2038    -0.7300 H       
  42 H42            0.0874     6.5151    -1.4645 H       
  43 H43            3.9412    10.7336    -0.9566 H       
  44 H44            4.7708    12.3560    -2.6128 H       
  45 H45            4.3594    11.9856    -5.0121 H       
  46 H46            3.1188     9.9926    -5.7552 H       
  47 H47            2.2884     8.3708    -4.0989 H       
  48 H48           -1.9696     4.1588    -0.7554 H       
  49 H49           -1.0734     2.6322    -0.9411 H       
  50 H50           -1.0222     2.4270     1.5700 H       
  51 H51           -2.0632     3.8675     1.6664 H       
  52 H52           -3.7881     2.7117     0.3108 H       
  53 H53           -2.7470     1.2712     0.2144 H       
  54 H54           -5.0100     0.5507     2.9753 H       
  55 H55           -5.4881     1.4043     1.4883 H       
  56 H56           -4.4470    -0.0362     1.3919 H       
  57 H57            0.4862     8.8609    -1.8264 H       
  58 H58            1.1800     9.8447    -0.5153 H       
  59 H59            2.5344     7.4637    -1.8618 H       
  60 H60            3.2282     8.4475    -0.5507 H       
@<TRIPOS>BOND
   1    1    2 ar
   2    1    6 ar
   3    1   30 1
   4    2    3 ar
   5    2   31 1
   6    3    4 ar
   7    3   29 1
   8    4    5 ar
   9    4   32 1
  10    5    6 ar
  11    5   33 1
  12    6   19 1
  13    7    8 1
  14    7   12 1
  15    7   21 1
  16    7   34 1
  17    8    9 1
  18    8   35 1
  19    8   36 1
  20    9   10 1
  21    9   37 1
  22    9   38 1
  23   10   11 1
  24   10   39 1
  25   10   40 1
  26   11   12 1
  27   11   27 1
  28   12   41 1
  29   12   42 1
  30   13   14 ar
  31   13   18 ar
  32   13   28 1
  33   14   15 ar
  34   14   43 1
  35   15   16 ar
  36   15   44 1
  37   16   17 ar
  38   16   45 1
  39   17   18 ar
  40   17   46 1
  41   18   47 1
  42   19   20 2
  43   19   21 am
  44   21   22 1
  45   22   23 1
  46   22   48 1
  47   22   49 1
  48   23   24 1
  49   23   50 1
  50   23   51 1
  51   24   25 1
  52   24   52 1
  53   24   53 1
  54   25   26 1
  55   26   54 1
  56   26   55 1
  57   26   56 1
  58   27   28 1
  59   27   57 1
  60   27   58 1
  61   28   59 1
  62   28   60 1

#	End of record

