#	Name: ASD01900242
#	Creating user name:	WinNT
#	Creation time:	15. 06. 2019 19:51

#	Modifying user name:	WinNT
#	Modification time:	15. 06. 2019 19:51

#	Program:	/corina/corina34_cracker 3.40 0067  02.08.2006

@<TRIPOS>MOLECULE
ASD01900242
  61   65    0    0    0
SMALL
NO_CHARGES


@<TRIPOS>ATOM
   1 C1             1.4494     0.0458    -0.7254 C.ar    
   2 C2             1.9230    -1.2229    -0.9872 C.ar    
   3 C3             3.2826    -1.4498    -1.1336 C.ar    
   4 C4             4.1849    -0.4102    -1.0141 C.ar    
   5 C5             3.7262     0.8691    -0.7492 C.ar    
   6 C6             2.3470     1.1045    -0.6095 C.ar    
   7 N7             4.5966     1.9437    -0.6050 N.pl3   
   8 C8             4.1204     3.2898    -0.9422 C.3     
   9 N9             2.7702     3.4966    -0.4168 N.am    
  10 C10            1.8916     2.4778    -0.3314 C.2     
  11 C11            5.0672     4.3288    -0.3343 C.3     
  12 C12            4.1060     3.4554    -2.4645 C.3     
  13 C13            3.6729     4.8815    -2.8123 C.3     
  14 N14            4.6060     5.8398    -2.2064 N.3     
  15 C15            4.6057     5.7299    -0.7422 C.3     
  16 C16            2.3844     4.7749     0.0055 C.ar    
  17 C17            2.8122     5.2590     1.2347 C.ar    
  18 C18            2.4314     6.5195     1.6504 C.ar    
  19 C19            1.6217     7.3022     0.8404 C.ar    
  20 C20            1.1939     6.8193    -0.3877 C.ar    
  21 C21            1.5786     5.5612    -0.8073 C.ar    
  22 C22            0.5114     9.3396     0.3196 C.3     
  23 O23            1.2467     8.5432     1.2507 O.3     
  24 C24            4.3007     7.2125    -2.6314 C.3     
  25 C25            5.2301     8.1725    -1.9346 C.ar    
  26 C26            6.4615     8.4677    -2.4891 C.ar    
  27 C27            7.3145     9.3490    -1.8494 C.ar    
  28 C28            6.9345     9.9346    -0.6547 C.ar    
  29 C29            5.7033     9.6387    -0.1013 C.ar    
  30 C30            4.8488     8.7621    -0.7440 C.ar    
  31 Cl31           8.8612     9.7197    -2.5449 Cl      
  32 O32            0.7331     2.6904    -0.0283 O.2     
  33 C33            3.7808    -2.8418    -1.4250 C.3     
  34 F34           -0.7154     8.7248     0.0468 F       
  35 F35            0.2862    10.6075     0.8663 F       
  36 F36            1.2433     9.4662    -0.8659 F       
  37 F37            2.6942    -3.7198    -1.5004 F       
  38 F38            4.4687    -2.8455    -2.6432 F       
  39 F39            4.6421    -3.2526    -0.4020 F       
  40 H40            0.3889     0.2180    -0.6154 H       
  41 H41            1.2295    -2.0458    -1.0785 H       
  42 H42            5.2430    -0.5947    -1.1265 H       
  43 H43            5.5025     1.8059    -0.2868 H       
  44 H44            5.0532     4.2427     0.7522 H       
  45 H45            6.0794     4.1577    -0.7009 H       
  46 H46            5.1049     3.2716    -2.8601 H       
  47 H47            3.4042     2.7450    -2.9013 H       
  48 H48            3.6748     5.0077    -3.8950 H       
  49 H49            2.6686     5.0599    -2.4279 H       
  50 H50            3.5980     5.9045    -0.3651 H       
  51 H51            5.2842     6.4724    -0.3221 H       
  52 H52            3.4424     4.6496     1.8656 H       
  53 H53            2.7638     6.8960     2.6066 H       
  54 H54            0.5635     7.4293    -1.0177 H       
  55 H55            1.2495     5.1873    -1.7655 H       
  56 H56            4.4331     7.2968    -3.7100 H       
  57 H57            3.2695     7.4522    -2.3721 H       
  58 H58            6.7576     8.0101    -3.4215 H       
  59 H59            7.6002    10.6224    -0.1546 H       
  60 H60            5.4066    10.0957     0.8312 H       
  61 H61            3.8847     8.5349    -0.3136 H       
@<TRIPOS>BOND
   1    1    2 ar
   2    1    6 ar
   3    1   40 1
   4    2    3 ar
   5    2   41 1
   6    3    4 ar
   7    3   33 1
   8    4    5 ar
   9    4   42 1
  10    5    7 1
  11    5    6 ar
  12    6   10 1
  13    7    8 1
  14    7   43 1
  15    8    9 1
  16    8   12 1
  17    8   11 1
  18    9   10 am
  19    9   16 1
  20   10   32 2
  21   11   15 1
  22   11   44 1
  23   11   45 1
  24   12   13 1
  25   12   46 1
  26   12   47 1
  27   13   14 1
  28   13   48 1
  29   13   49 1
  30   14   15 1
  31   14   24 1
  32   15   50 1
  33   15   51 1
  34   16   17 ar
  35   16   21 ar
  36   17   18 ar
  37   17   52 1
  38   18   19 ar
  39   18   53 1
  40   19   20 ar
  41   19   23 1
  42   20   21 ar
  43   20   54 1
  44   21   55 1
  45   22   23 1
  46   22   34 1
  47   22   35 1
  48   22   36 1
  49   24   25 1
  50   24   56 1
  51   24   57 1
  52   25   26 ar
  53   25   30 ar
  54   26   27 ar
  55   26   58 1
  56   27   28 ar
  57   27   31 1
  58   28   29 ar
  59   28   59 1
  60   29   30 ar
  61   29   60 1
  62   30   61 1
  63   33   37 1
  64   33   38 1
  65   33   39 1

#	End of record

