#	Name: ASD03731688
#	Creating user name:	WinNT
#	Creation time:	15. 06. 2019 20:46

#	Modifying user name:	WinNT
#	Modification time:	15. 06. 2019 20:46

#	Program:	/corina/corina34_cracker 3.40 0067  02.08.2006

@<TRIPOS>MOLECULE
ASD03731688
  43   44    0    0    0
SMALL
NO_CHARGES


@<TRIPOS>ATOM
   1 C1            -0.0250     1.4695    -0.1120 C.2     
   2 C2            -0.0030    -0.0046    -0.0885 C.ar    
   3 C3             0.0528    -0.6865     1.1328 C.ar    
   4 C4             0.0733    -2.0666     1.1496 C.ar    
   5 C5             0.0386    -2.7779    -0.0423 C.ar    
   6 C6            -0.0170    -2.1032    -1.2594 C.ar    
   7 C7            -0.0436    -0.7258    -1.2857 C.ar    
   8 O8             0.0054     2.0947     0.9305 O.2     
   9 N9            -0.0732     2.1240    -1.2892 N.am    
  10 S10           -0.0979     3.7796    -1.3157 S.o2    
  11 O11           -0.1739     4.1069    -2.6964 O.2     
  12 O12           -1.1455     4.1287    -0.4213 O.2     
  13 C13            1.5106     4.2672    -0.6334 C.3     
  14 F14           -0.0502    -2.8006    -2.4160 F       
  15 F15            0.0871     0.0049     2.2929 F       
  16 O16            0.0593    -4.1349    -0.0213 O.3     
  17 C17            1.2624    -4.7568    -0.1412 C.ar    
  18 C18            1.3423    -6.1441    -0.0557 C.ar    
  19 C19            2.5704    -6.7730    -0.1790 C.ar    
  20 C20            3.7135    -6.0230    -0.3865 C.ar    
  21 C21            3.6343    -4.6457    -0.4715 C.ar    
  22 C22            2.4110    -4.0118    -0.3545 C.ar    
  23 C23            5.0487    -6.7089    -0.5199 C.3     
  24 O24            0.2173    -6.8802     0.1489 O.3     
  25 C25            0.3750    -8.2984     0.2260 C.3     
  26 C26           -0.9892    -8.9514     0.4574 C.3     
  27 H27            0.1167    -2.5939     2.0912 H       
  28 H28           -0.0916    -0.2038    -2.2300 H       
  29 H29           -0.0934     1.6253    -2.1209 H       
  30 H30            2.3076     3.8622    -1.2569 H       
  31 H31            1.5821     5.3547    -0.6133 H       
  32 H32            1.6085     3.8779     0.3799 H       
  33 H33            2.6352    -7.8490    -0.1127 H       
  34 H34            4.5295    -4.0635    -0.6333 H       
  35 H35            2.3514    -2.9358    -0.4254 H       
  36 H36            5.2327    -6.9452    -1.5680 H       
  37 H37            5.8346    -6.0487    -0.1529 H       
  38 H38            5.0446    -7.6288     0.0646 H       
  39 H39            0.8011    -8.6678    -0.7068 H       
  40 H40            1.0410    -8.5455     1.0527 H       
  41 H41           -1.6552    -8.7042    -0.3693 H       
  42 H42           -0.8689   -10.0331     0.5162 H       
  43 H43           -1.4153    -8.5819     1.3902 H       
@<TRIPOS>BOND
   1    1    2 1
   2    1    8 2
   3    1    9 am
   4    2    3 ar
   5    2    7 ar
   6    3    4 ar
   7    3   15 1
   8    4    5 ar
   9    4   27 1
  10    5    6 ar
  11    5   16 1
  12    6    7 ar
  13    6   14 1
  14    7   28 1
  15    9   10 am
  16    9   29 1
  17   10   11 2
  18   10   12 2
  19   10   13 1
  20   13   30 1
  21   13   31 1
  22   13   32 1
  23   16   17 1
  24   17   18 ar
  25   17   22 ar
  26   18   19 ar
  27   18   24 1
  28   19   20 ar
  29   19   33 1
  30   20   21 ar
  31   20   23 1
  32   21   22 ar
  33   21   34 1
  34   22   35 1
  35   23   36 1
  36   23   37 1
  37   23   38 1
  38   24   25 1
  39   25   26 1
  40   25   39 1
  41   25   40 1
  42   26   41 1
  43   26   42 1
  44   26   43 1

#	End of record

