#	Name: ASD01884621
#	Creating user name:	WinNT
#	Creation time:	15. 06. 2019 19:48

#	Modifying user name:	WinNT
#	Modification time:	15. 06. 2019 19:48

#	Program:	/corina/corina34_cracker 3.40 0067  02.08.2006

@<TRIPOS>MOLECULE
ASD01884621
  25   26    0    0    0
SMALL
NO_CHARGES


@<TRIPOS>ATOM
   1 C1            -0.0164     1.3598     0.0095 C.2     
   2 C2             0.0021    -0.0041     0.0020 C.2     
   3 C3             1.2347    -0.6729    -0.0133 C.2     
   4 C4             2.3883     0.0363    -0.0205 C.2     
   5 N5             2.3671     1.3942    -0.0126 N.am    
   6 C6             1.1993     2.0645     0.0017 C.2     
   7 O7             1.1968     3.2852     0.0083 O.2     
   8 C8             3.6291     2.1381    -0.0197 C.3     
   9 Br9            1.2857    -2.5632    -0.0234 Br      
  10 C10            4.0491     2.4013    -1.4429 C.ar    
  11 C11            3.4727     3.4401    -2.1538 C.ar    
  12 C12            3.8591     3.6813    -3.4613 C.ar    
  13 C13            4.8204     2.8842    -4.0556 C.ar    
  14 C14            5.3955     1.8463    -3.3435 C.ar    
  15 C15            5.0138     1.6092    -2.0365 C.ar    
  16 Cl16           5.3053     3.1853    -5.6951 Cl      
  17 F17            2.5334     4.2178    -1.5723 F       
  18 H18           -0.9558     1.8926     0.0169 H       
  19 H19           -0.9222    -0.5627     0.0082 H       
  20 H20            3.3350    -0.4833    -0.0324 H       
  21 H21            3.4948     3.0864     0.5008 H       
  22 H22            4.3986     1.5530     0.4839 H       
  23 H23            3.4099     4.4911    -4.0169 H       
  24 H24            6.1462     1.2240    -3.8078 H       
  25 H25            5.4632     0.7989    -1.4816 H       
@<TRIPOS>BOND
   1    1    2 2
   2    1    6 1
   3    1   18 1
   4    2    3 1
   5    2   19 1
   6    3    4 2
   7    3    9 1
   8    4    5 1
   9    4   20 1
  10    5    6 am
  11    5    8 1
  12    6    7 2
  13    8   10 1
  14    8   21 1
  15    8   22 1
  16   10   11 ar
  17   10   15 ar
  18   11   12 ar
  19   11   17 1
  20   12   13 ar
  21   12   23 1
  22   13   14 ar
  23   13   16 1
  24   14   15 ar
  25   14   24 1
  26   15   25 1

#	End of record

