#	Name: ASD01209338
#	Creating user name:	WinNT
#	Creation time:	15. 06. 2019 19:11

#	Modifying user name:	WinNT
#	Modification time:	15. 06. 2019 19:11

#	Program:	/corina/corina34_cracker 3.40 0067  02.08.2006

@<TRIPOS>MOLECULE
ASD01209338
  60   63    0    0    0
SMALL
NO_CHARGES


@<TRIPOS>ATOM
   1 S1            -0.0093     1.9704    -0.7486 S.3     
   2 C2             0.0306     0.5537    -1.8126 C.2     
   3 N3             1.3188     0.2873    -2.0570 N.am    
   4 C4             2.2556     1.0495    -1.5178 C.2     
   5 C5             1.7556     2.1447    -0.6789 C.2     
   6 O6            -0.9295    -0.0593    -2.2392 O.2     
   7 O7             3.4429     0.8566    -1.7030 O.2     
   8 C8             2.4766     3.0765    -0.0055 C.2     
   9 C9             3.9380     2.9559     0.0767 C.ar    
  10 C10            4.7423     4.0945    -0.0351 C.ar    
  11 C11            6.1229     3.9731     0.0439 C.ar    
  12 C12            6.7026     2.7123     0.2351 C.ar    
  13 C13            5.8992     1.5856     0.3454 C.ar    
  14 C14            4.5286     1.7009     0.2730 C.ar    
  15 O15            8.0522     2.5920     0.3121 O.3     
  16 C16            8.5761     1.2770     0.5079 C.3     
  17 F17            8.1857     0.4564    -0.5558 F       
  18 F18            9.9728     1.3351     0.5637 F       
  19 F19            8.0829     0.7522     1.7072 F       
  20 C20            6.9263     6.1753     0.8917 C.ar    
  21 C21            6.9827     5.1762    -0.0743 C.ar    
  22 C22            7.8532     5.3135    -1.1536 C.ar    
  23 C23            8.6483     6.4341    -1.2493 C.ar    
  24 C24            8.5910     7.4301    -0.2815 C.ar    
  25 C25            9.4975     8.6217    -0.4507 C.3     
  26 C26            9.0191     9.7877     0.4118 C.3     
  27 C27            8.8182     9.2794     1.8443 C.3     
  28 C28            7.6059     8.3505     1.8600 C.3     
  29 C29            7.7281     7.3016     0.7855 C.ar    
  30 C30            7.5127     7.6659     3.2251 C.3     
  31 C31            6.3376     9.1722     1.6210 C.3     
  32 C32           10.9189     8.2371    -0.0354 C.3     
  33 C33            9.5002     9.0489    -1.9198 C.3     
  34 C34            7.9247     4.2415    -2.2104 C.3     
  35 H35            1.5639    -0.4596    -2.6253 H       
  36 H36            1.9757     3.9068     0.4701 H       
  37 H37            4.2911     5.0645    -0.1828 H       
  38 H38            6.3504     0.6155     0.4927 H       
  39 H39            3.9082     0.8215     0.3636 H       
  40 H40            6.2503     6.0751     1.7280 H       
  41 H41            9.3239     6.5398    -2.0852 H       
  42 H42            9.7672    10.5804     0.4052 H       
  43 H43            8.0755    10.1696     0.0221 H       
  44 H44            9.7039     8.7325     2.1674 H       
  45 H45            8.6430    10.1230     2.5120 H       
  46 H46            7.4044     8.4210     4.0037 H       
  47 H47            6.6484     7.0019     3.2403 H       
  48 H48            8.4188     7.0870     3.4039 H       
  49 H49            6.4040     9.6698     0.6535 H       
  50 H50            5.4700     8.5126     1.6316 H       
  51 H51            6.2353     9.9197     2.4078 H       
  52 H52           11.2715     7.4181    -0.6622 H       
  53 H53           11.5780     9.0969    -0.1564 H       
  54 H54           10.9200     7.9225     1.0082 H       
  55 H55            8.4875     9.3145    -2.2229 H       
  56 H56           10.1551     9.9111    -2.0463 H       
  57 H57            9.8601     8.2257    -2.5369 H       
  58 H58            7.2047     4.4601    -2.9990 H       
  59 H59            8.9292     4.2141    -2.6328 H       
  60 H60            7.6919     3.2748    -1.7636 H       
@<TRIPOS>BOND
   1    1    2 1
   2    1    5 1
   3    2    3 am
   4    2    6 2
   5    3    4 am
   6    3   35 1
   7    4    5 1
   8    4    7 2
   9    5    8 2
  10    8    9 1
  11    8   36 1
  12    9   10 ar
  13    9   14 ar
  14   10   11 ar
  15   10   37 1
  16   11   12 ar
  17   11   21 1
  18   12   13 ar
  19   12   15 1
  20   13   14 ar
  21   13   38 1
  22   14   39 1
  23   15   16 1
  24   16   17 1
  25   16   18 1
  26   16   19 1
  27   20   21 ar
  28   20   29 ar
  29   20   40 1
  30   21   22 ar
  31   22   23 ar
  32   22   34 1
  33   23   24 ar
  34   23   41 1
  35   24   25 1
  36   24   29 ar
  37   25   26 1
  38   25   32 1
  39   25   33 1
  40   26   27 1
  41   26   42 1
  42   26   43 1
  43   27   28 1
  44   27   44 1
  45   27   45 1
  46   28   29 1
  47   28   30 1
  48   28   31 1
  49   30   46 1
  50   30   47 1
  51   30   48 1
  52   31   49 1
  53   31   50 1
  54   31   51 1
  55   32   52 1
  56   32   53 1
  57   32   54 1
  58   33   55 1
  59   33   56 1
  60   33   57 1
  61   34   58 1
  62   34   59 1
  63   34   60 1

#	End of record

