#	Name: ASD01140256
#	Creating user name:	WinNT
#	Creation time:	15. 06. 2019 19:00

#	Modifying user name:	WinNT
#	Modification time:	15. 06. 2019 19:00

#	Program:	/corina/corina34_cracker 3.40 0067  02.08.2006

@<TRIPOS>MOLECULE
ASD01140256
  27   29    0    0    0
SMALL
NO_CHARGES


@<TRIPOS>ATOM
   1 C1            -0.0167     1.3812     0.0096 C.ar    
   2 C2             0.0021    -0.0041     0.0020 C.ar    
   3 C3             1.2036    -0.6763    -0.0132 C.ar    
   4 C4             2.4151     0.0300    -0.0211 C.ar    
   5 C5             2.3932     1.4229    -0.0126 C.ar    
   6 C6             1.1658     2.0881     0.0021 C.ar    
   7 Br7           -1.6226    -0.9717     0.0131 Br      
   8 C8             3.6617    -0.7536    -0.0408 C.2     
   9 C9             3.7187    -1.9644     0.7938 C.2     
  10 C10            4.7880    -2.8048     0.8965 C.2     
  11 C11            4.5694    -3.8627     1.7506 C.2     
  12 C12            3.3633    -3.8861     2.3261 C.2     
  13 S13            2.4218    -2.5547     1.8240 S.3     
  14 N14            4.7078    -0.4574    -0.7362 N.2     
  15 C15            4.7553     0.7277    -1.5916 C.3     
  16 C16            4.6341     1.9551    -0.7303 C.2     
  17 N17            3.5398     2.2030    -0.0147 N.am    
  18 O18            5.5582     2.7393    -0.6868 O.2     
  19 H19           -0.9597     1.9076     0.0170 H       
  20 H20            1.2131    -1.7563    -0.0187 H       
  21 H21            1.1430     3.1678     0.0075 H       
  22 H22            5.7139    -2.6556     0.3609 H       
  23 H23            5.3174    -4.6180     1.9412 H       
  24 H24            3.0305    -4.6443     3.0195 H       
  25 H25            5.7027     0.7516    -2.1300 H       
  26 H26            3.9299     0.6979    -2.3029 H       
  27 H27            3.5445     2.9917     0.5500 H       
@<TRIPOS>BOND
   1    1    2 ar
   2    1    6 ar
   3    1   19 1
   4    2    3 ar
   5    2    7 1
   6    3    4 ar
   7    3   20 1
   8    4    5 ar
   9    4    8 1
  10    5    6 ar
  11    5   17 1
  12    6   21 1
  13    8    9 1
  14    8   14 2
  15    9   10 2
  16    9   13 1
  17   10   11 1
  18   10   22 1
  19   11   12 2
  20   11   23 1
  21   12   13 1
  22   12   24 1
  23   14   15 1
  24   15   16 1
  25   15   25 1
  26   15   26 1
  27   16   17 am
  28   16   18 2
  29   17   27 1

#	End of record

