#	Name: ASD01812409
#	Creating user name:	WinNT
#	Creation time:	15. 06. 2019 19:28

#	Modifying user name:	WinNT
#	Modification time:	15. 06. 2019 19:28

#	Program:	/corina/corina34_cracker 3.40 0067  02.08.2006

@<TRIPOS>MOLECULE
ASD01812409
  61   65    0    0    0
SMALL
NO_CHARGES


@<TRIPOS>ATOM
   1 C1            -0.0697     1.5106    -0.0281 C.3     
   2 N2            -0.0442     0.0458    -0.0272 N.pl3   
   3 C3            -0.0318    -0.7453    -1.1190 C.2     
   4 C4            -0.0087    -2.0402    -0.6901 C.2     
   5 C5            -0.0072    -2.0214     0.7182 C.2     
   6 N6            -0.0224    -0.7741     1.1075 N.2     
   7 C7             0.0113    -3.2495    -1.5514 C.ar    
   8 C8             0.0284    -4.5253    -0.9831 C.ar    
   9 C9             0.0462    -5.6212    -1.8294 C.ar    
  10 C10            0.0465    -5.4193    -3.1972 C.ar    
  11 C11            0.0654    -6.6086    -4.1225 C.3     
  12 C12           -1.0976    -6.5210    -5.0769 C.2     
  13 C13           -0.9200    -5.9583    -6.3482 C.2     
  14 C14            0.3462    -5.4787    -6.7234 C.2     
  15 C15            0.5161    -4.9315    -7.9614 C.2     
  16 C16           -0.5748    -4.8568    -8.8382 C.2     
  17 C17           -1.7858    -5.3236    -8.4593 C.2     
  18 N18           -1.9676    -5.8730    -7.2247 N.am    
  19 C19           -3.1881    -6.3285    -6.8773 C.2     
  20 O20           -4.1141    -6.2464    -7.6667 O.2     
  21 C21           -3.3982    -6.8995    -5.6063 C.2     
  22 C22           -2.3227    -6.9949    -4.7051 C.2     
  23 C23           -4.7258    -7.3949    -5.2285 C.2     
  24 O24           -5.6739    -7.2224    -5.9719 O.2     
  25 N25           -4.8959    -8.0412    -4.0582 N.am    
  26 C26           -6.2395    -8.4364    -3.6282 C.3     
  27 H27           -6.9594    -7.6826    -3.9469 H       
  28 C28           -6.6002    -9.7840    -4.2566 C.3     
  29 C29           -8.0034   -10.1968    -3.8076 C.3     
  30 C30           -8.0353   -10.3201    -2.2829 C.3     
  31 C31           -7.6746    -8.9725    -1.6546 C.3     
  32 C32           -6.2714    -8.5597    -2.1035 C.3     
  33 H33           -5.5515    -9.3136    -1.7848 H       
  34 O34           -5.9345    -7.3011    -1.5167 O.3     
  35 N35            0.0302    -4.2019    -3.7048 N.ar    
  36 C36            0.0075    -3.1300    -2.9394 C.ar    
  37 H37            0.9514     1.8918    -0.0347 H       
  38 H38           -0.5953     1.8643    -0.9151 H       
  39 H39           -0.5843     1.8656     0.8648 H       
  40 H40           -0.0391    -0.4139    -2.1468 H       
  41 H41            0.0087    -2.8870     1.3639 H       
  42 H42            0.0281    -4.6539     0.0892 H       
  43 H43            0.0601    -6.6227    -1.4254 H       
  44 H44            0.9983    -6.6156    -4.6863 H       
  45 H45           -0.0126    -7.5252    -3.5378 H       
  46 H46            1.1779    -5.5425    -6.0374 H       
  47 H47            1.4835    -4.5585    -8.2633 H       
  48 H48           -0.4476    -4.4244    -9.8197 H       
  49 H49           -2.6194    -5.2608    -9.1432 H       
  50 H50           -2.4654    -7.4340    -3.7288 H       
  51 H51           -4.1288    -8.2446    -3.5005 H       
  52 H52           -6.5774    -9.6962    -5.3428 H       
  53 H53           -5.8803   -10.5378    -3.9379 H       
  54 H54           -8.7233    -9.4430    -4.1263 H       
  55 H55           -8.2604   -11.1568    -4.2552 H       
  56 H56           -9.0350   -10.6142    -1.9630 H       
  57 H57           -7.3154   -11.0739    -1.9642 H       
  58 H58           -8.3945    -8.2187    -1.9733 H       
  59 H59           -7.6974    -9.0604    -0.5683 H       
  60 H60           -5.9350    -7.3053    -0.5497 H       
  61 H61           -0.0101    -2.1496    -3.3920 H       
@<TRIPOS>BOND
   1    1    2 1
   2    1   37 1
   3    1   38 1
   4    1   39 1
   5    2    6 1
   6    2    3 1
   7    3    4 2
   8    3   40 1
   9    4    5 1
  10    4    7 1
  11    5    6 2
  12    5   41 1
  13    7   36 ar
  14    7    8 ar
  15    8    9 ar
  16    8   42 1
  17    9   10 ar
  18    9   43 1
  19   10   11 1
  20   10   35 ar
  21   11   12 1
  22   11   44 1
  23   11   45 1
  24   12   22 1
  25   12   13 2
  26   13   18 1
  27   13   14 1
  28   14   15 2
  29   14   46 1
  30   15   16 1
  31   15   47 1
  32   16   17 2
  33   16   48 1
  34   17   18 1
  35   17   49 1
  36   18   19 am
  37   19   20 2
  38   19   21 1
  39   21   22 2
  40   21   23 1
  41   22   50 1
  42   23   24 2
  43   23   25 am
  44   25   26 1
  45   25   51 1
  46   26   27 1
  47   26   32 1
  48   26   28 1
  49   28   29 1
  50   28   52 1
  51   28   53 1
  52   29   30 1
  53   29   54 1
  54   29   55 1
  55   30   31 1
  56   30   56 1
  57   30   57 1
  58   31   32 1
  59   31   58 1
  60   31   59 1
  61   32   33 1
  62   32   34 1
  63   34   60 1
  64   35   36 ar
  65   36   61 1

#	End of record

