#	Name: ASD00840100
#	Creating user name:	WinNT
#	Creation time:	15. 06. 2019 18:37

#	Modifying user name:	WinNT
#	Modification time:	15. 06. 2019 18:37

#	Program:	/corina/corina34_cracker 3.40 0067  02.08.2006

@<TRIPOS>MOLECULE
ASD00840100
  94   99    0    0    0
SMALL
NO_CHARGES


@<TRIPOS>ATOM
   1 N1             0.0312     1.3314     0.1158 N.3     
   2 C2            -0.5001     1.7346    -1.1937 C.3     
   3 C3             0.3928     1.1678    -2.3000 C.3     
   4 N4             0.4432    -0.2963    -2.1834 N.3     
   5 C5             0.9746    -0.6994    -0.8738 C.3     
   6 C6             0.0816    -0.1326     0.2324 C.3     
   7 N7            -2.1774     5.0897     3.1080 N.am    
   8 C8            -2.1950     3.7932     2.7567 C.2     
   9 C9            -0.8881     3.1869     3.2216 C.3     
  10 C10           -0.1610     4.3405     3.8745 C.ar    
  11 C11            1.0630     4.4422     4.4865 C.ar    
  12 C12            1.4793     5.6710     5.0101 C.ar    
  13 C13            0.6386     6.7859     4.9028 C.ar    
  14 C14           -0.5885     6.6708     4.2863 C.ar    
  15 C15           -1.0021     5.4447     3.7641 C.ar    
  16 O16           -3.0902     3.2165     2.1763 O.2     
  17 F17            1.0313     7.9770     5.4051 F       
  18 C18           -1.9761     1.0247     3.9024 C.ar    
  19 C19           -1.1415     2.0884     4.2216 C.ar    
  20 C20           -0.5457     2.1255     5.4700 C.ar    
  21 C21           -0.8071     1.0920     6.3594 C.ar    
  22 C22           -1.6471     0.0663     5.9748 C.ar    
  23 N23           -2.2008     0.0585     4.7770 N.ar    
  24 O24           -2.5708     0.9795     2.6838 O.3     
  25 C25           -3.4175    -0.1401     2.4162 C.3     
  26 C26           -3.9939    -0.0177     1.0042 C.3     
  27 S27           -3.4112     6.1476     2.7902 S.o2    
  28 O28           -2.8357     7.4468     2.7899 O.2     
  29 O29           -4.1232     5.6126     1.6828 O.2     
  30 C30           -4.5130     6.0917     4.1641 C.ar    
  31 C31           -5.2100     4.9253     4.4469 C.ar    
  32 C32           -6.0766     4.8820     5.5279 C.ar    
  33 C33           -6.2449     6.0046     6.3240 C.ar    
  34 C34           -5.5459     7.1683     6.0371 C.ar    
  35 C35           -4.6781     7.2072     4.9622 C.ar    
  36 O36           -7.0942     5.9654     7.3842 O.3     
  37 C37           -7.2182     7.1586     8.1606 C.3     
  38 O38           -5.0433     3.8267     3.6645 O.3     
  39 C39           -5.7925     2.6613     4.0145 C.3     
  40 C40            2.7545     5.7876     5.6511 C.1     
  41 N41            3.7661     5.8801     6.1596 N.1     
  42 C42           -0.1015     2.6633     2.0477 C.2     
  43 O43            1.0713     2.9481     1.9280 O.2     
  44 N44           -0.7013     1.8784     1.1308 N.am    
  45 N45            1.4172    -2.7437    -5.4765 N.3     
  46 C46            2.1353    -3.0096    -4.2235 C.3     
  47 C47            1.3663    -2.3934    -3.0526 C.3     
  48 C48            1.2310    -0.8845    -3.2749 C.3     
  49 C49            0.5229    -0.6345    -4.6093 C.3     
  50 C50            1.3164    -1.3017    -5.7350 C.3     
  51 C51            2.0523    -3.4377    -6.6048 C.3     
  52 C52            1.1475    -3.3452    -7.8351 C.3     
  53 H53           -1.5127     1.3481    -1.3099 H       
  54 H54           -0.5158     2.8224    -1.2606 H       
  55 H55           -0.0156     1.4412    -3.2729 H       
  56 H56            1.3988     1.5754    -2.2000 H       
  57 H57            0.9902    -1.7872    -0.8070 H       
  58 H58            1.9871    -0.3130    -0.7576 H       
  59 H59            0.4901    -0.4061     1.2053 H       
  60 H60           -0.9243    -0.5403     0.1324 H       
  61 H61            1.7031     3.5758     4.5641 H       
  62 H62           -1.2329     7.5338     4.2066 H       
  63 H63            0.1081     2.9396     5.7460 H       
  64 H64           -0.3578     1.0904     7.3415 H       
  65 H65           -1.8534    -0.7403     6.6628 H       
  66 H66           -2.8385    -1.0603     2.4938 H       
  67 H67           -4.2319    -0.1611     3.1404 H       
  68 H68           -4.6397    -0.8717     0.8001 H       
  69 H69           -4.5729     0.9025     0.9266 H       
  70 H70           -3.1795     0.0033     0.2799 H       
  71 H71           -6.6201     3.9754     5.7494 H       
  72 H72           -5.6766     8.0430     6.6569 H       
  73 H73           -4.1316     8.1126     4.7430 H       
  74 H74           -6.2457     7.4258     8.5741 H       
  75 H75           -7.5784     7.9688     7.5266 H       
  76 H76           -7.9251     6.9915     8.9733 H       
  77 H77           -5.5670     1.8596     3.3112 H       
  78 H78           -5.5243     2.3461     5.0229 H       
  79 H79           -6.8577     2.8891     3.9763 H       
  80 H80           -1.6532     1.7020     1.1916 H       
  81 H81            2.2210    -4.0861    -4.0755 H       
  82 H82            3.1313    -2.5699    -4.2754 H       
  83 H83            0.3750    -2.8426    -2.9917 H       
  84 H84            1.9076    -2.5775    -2.1246 H       
  85 H85            2.2211    -0.4292    -3.2959 H       
  86 H86           -0.4816    -1.0560    -4.5728 H       
  87 H87            0.4617     0.4381    -4.7934 H       
  88 H88            2.3163    -0.8700    -5.7799 H       
  89 H89            0.8073    -1.1377    -6.6848 H       
  90 H90            3.0127    -2.9711    -6.8242 H       
  91 H91            2.2079    -4.4850    -6.3461 H       
  92 H92            0.1871    -3.8118    -7.6156 H       
  93 H93            0.9919    -2.2979    -8.0938 H       
  94 H94            1.6187    -3.8602    -8.6722 H       
@<TRIPOS>BOND
   1    1    2 1
   2    1    6 1
   3    1   44 1
   4    2    3 1
   5    2   53 1
   6    2   54 1
   7    3    4 1
   8    3   55 1
   9    3   56 1
  10    4    5 1
  11    4   48 1
  12    5    6 1
  13    5   57 1
  14    5   58 1
  15    6   59 1
  16    6   60 1
  17    7    8 am
  18    7   15 1
  19    7   27 am
  20    8    9 1
  21    8   16 2
  22    9   10 1
  23    9   19 1
  24    9   42 1
  25   10   11 ar
  26   10   15 ar
  27   11   12 ar
  28   11   61 1
  29   12   13 ar
  30   12   40 1
  31   13   14 ar
  32   13   17 1
  33   14   15 ar
  34   14   62 1
  35   18   19 ar
  36   18   23 ar
  37   18   24 1
  38   19   20 ar
  39   20   21 ar
  40   20   63 1
  41   21   22 ar
  42   21   64 1
  43   22   23 ar
  44   22   65 1
  45   24   25 1
  46   25   26 1
  47   25   66 1
  48   25   67 1
  49   26   68 1
  50   26   69 1
  51   26   70 1
  52   27   28 2
  53   27   29 2
  54   27   30 1
  55   30   31 ar
  56   30   35 ar
  57   31   32 ar
  58   31   38 1
  59   32   33 ar
  60   32   71 1
  61   33   34 ar
  62   33   36 1
  63   34   35 ar
  64   34   72 1
  65   35   73 1
  66   36   37 1
  67   37   74 1
  68   37   75 1
  69   37   76 1
  70   38   39 1
  71   39   77 1
  72   39   78 1
  73   39   79 1
  74   40   41 3
  75   42   43 2
  76   42   44 am
  77   44   80 1
  78   45   46 1
  79   45   50 1
  80   45   51 1
  81   46   47 1
  82   46   81 1
  83   46   82 1
  84   47   48 1
  85   47   83 1
  86   47   84 1
  87   48   49 1
  88   48   85 1
  89   49   50 1
  90   49   86 1
  91   49   87 1
  92   50   88 1
  93   50   89 1
  94   51   52 1
  95   51   90 1
  96   51   91 1
  97   52   92 1
  98   52   93 1
  99   52   94 1

#	End of record

