#	Name: ASD00960159
#	Creating user name:	WinNT
#	Creation time:	15. 06. 2019 18:53

#	Modifying user name:	WinNT
#	Modification time:	15. 06. 2019 18:53

#	Program:	/corina/corina34_cracker 3.40 0067  02.08.2006

@<TRIPOS>MOLECULE
ASD00960159
  53   54    0    0    0
SMALL
NO_CHARGES


@<TRIPOS>ATOM
   1 C1             0.0106     1.5243    -0.0443 C.3     
   2 C2            -0.5057     2.0027     1.3308 C.3     
   3 O3            -1.9200     2.2226     1.1379 O.3     
   4 C4            -2.0349     2.8418    -0.1619 C.3     
   5 C5            -3.4524     2.6682    -0.7111 C.3     
   6 C6            -0.2776     0.9405     2.3753 C.2     
   7 C7            -1.0519    -0.1535     2.5687 C.2     
   8 N8             0.7416     0.9207     3.2729 N.pl3   
   9 C9             0.6148    -0.2021     4.0575 C.2     
  10 C10           -0.5036    -0.8851     3.6289 C.2     
  11 C11           -1.0159     2.0892    -1.0515 C.3     
  12 C12            0.0362    -0.0042    -0.1052 C.3     
  13 Br13          -2.5991    -0.6112     1.5825 Br      
  14 Si14           3.0718     6.3733     5.7054 Si      
  15 C15            1.8123     5.0215     5.4665 C.3     
  16 C16            2.3555     3.9870     4.4787 C.3     
  17 O17            1.3894     2.9501     4.2955 O.3     
  18 C18            3.4163     7.1970     4.0703 C.3     
  19 C19            2.4103     7.6329     6.9081 C.3     
  20 C20            4.6482     5.6417     6.3765 C.3     
  21 C21            1.8001     1.9271     3.3862 C.3     
  22 O22           -4.3704     3.4061     0.0981 O.3     
  23 *23           -5.7120     3.3121    -0.3255 Du      
  24 O24            1.3113     2.0564    -0.3035 O.3     
  25 *25            1.8366     1.6992    -1.5623 Du      
  26 O26           -0.3848     2.9911    -1.9627 O.3     
  27 *27           -1.0388     3.1003    -3.2071 Du      
  28 C28            1.4879    -0.5926     5.1232 C.1     
  29 N29            2.1805    -0.9024     5.9687 N.1     
  30 H30           -0.0131     2.9314     1.6190 H       
  31 H31           -1.7769     3.8991    -0.1026 H       
  32 H32           -3.4928     3.0377    -1.7357 H       
  33 H33           -3.7215     1.6120    -0.6948 H       
  34 H34           -0.8849    -1.8105     4.0347 H       
  35 H35           -1.5058     1.2793    -1.5920 H       
  36 H36            0.6301    -0.3910     0.7229 H       
  37 H37           -0.9815    -0.3878    -0.0327 H       
  38 H38            0.4782    -0.3229    -1.0493 H       
  39 H39            1.6107     4.5395     6.4232 H       
  40 H40            0.8899     5.4495     5.0738 H       
  41 H41            2.5571     4.4690     3.5221 H       
  42 H42            3.2778     3.5590     4.8714 H       
  43 H43            2.4940     7.6250     3.6776 H       
  44 H44            4.1532     7.9880     4.2100 H       
  45 H45            3.8033     6.4601     3.3666 H       
  46 H46            2.2088     7.1509     7.8648 H       
  47 H47            3.1472     8.4238     7.0479 H       
  48 H48            1.4880     8.0609     6.5154 H       
  49 H49            5.0352     4.9048     5.6728 H       
  50 H50            5.3851     6.4327     6.5163 H       
  51 H51            4.4466     5.1598     7.3332 H       
  52 H52            2.7109     1.4564     3.7562 H       
  53 H53            1.9902     2.3663     2.4069 H       
@<TRIPOS>BOND
   1    1   12 1
   2    1   24 1
   3    1    2 1
   4    1   11 1
   5    2    3 1
   6    2    6 1
   7    2   30 1
   8    3    4 1
   9    4   11 1
  10    4    5 1
  11    4   31 1
  12    5   22 1
  13    5   32 1
  14    5   33 1
  15    6    7 2
  16    6    8 1
  17    7   13 1
  18    7   10 1
  19    8    9 1
  20    8   21 1
  21    9   10 2
  22    9   28 1
  23   10   34 1
  24   11   26 1
  25   11   35 1
  26   12   36 1
  27   12   37 1
  28   12   38 1
  29   14   15 1
  30   14   18 1
  31   14   19 1
  32   14   20 1
  33   15   16 1
  34   15   39 1
  35   15   40 1
  36   16   17 1
  37   16   41 1
  38   16   42 1
  39   17   21 1
  40   18   43 1
  41   18   44 1
  42   18   45 1
  43   19   46 1
  44   19   47 1
  45   19   48 1
  46   20   49 1
  47   20   50 1
  48   20   51 1
  49   21   52 1
  50   21   53 1
  51   22   23 1
  52   24   25 1
  53   26   27 1
  54   28   29 3

#	End of record

