#	Name: ASD03082197
#	Creating user name:	WinNT
#	Creation time:	15. 06. 2019 20:27

#	Modifying user name:	WinNT
#	Modification time:	15. 06. 2019 20:27

#	Program:	/corina/corina34_cracker 3.40 0067  02.08.2006

@<TRIPOS>MOLECULE
ASD03082197
  52   54    0    0    0
SMALL
NO_CHARGES


@<TRIPOS>ATOM
   1 N1             0.0263     1.4373    -0.1384 N.pl3   
   2 N2            -0.0148     0.0342    -0.1776 N.2     
   3 C3             1.2068    -0.3909     0.0509 C.2     
   4 N4             2.0068     0.6610     0.2302 N.2     
   5 C5             1.3097     1.7738     0.1192 C.2     
   6 N6             1.6039    -1.7287     0.0985 N.pl3   
   7 C7             2.9568    -2.0515     0.2334 C.ar    
   8 C8             3.3301    -3.2648     0.7983 C.ar    
   9 C9             4.6678    -3.5808     0.9296 C.ar    
  10 C10            5.6357    -2.6910     0.4999 C.ar    
  11 C11            5.2676    -1.4826    -0.0623 C.ar    
  12 C12            3.9313    -1.1628    -0.2024 C.ar    
  13 C13            5.0738    -4.8964     1.5423 C.3     
  14 F14            5.1841    -5.8642     0.5381 F       
  15 F15            6.3070    -4.7501     2.1865 F       
  16 F16            4.1070    -5.2963     2.4711 F       
  17 C17            3.6626     4.7037     0.2540 C.ar    
  18 C18            3.2091     3.4088     0.1226 C.ar    
  19 C19            1.8390     3.1497     0.2530 C.ar    
  20 C20            0.9854     4.2242     0.5121 C.ar    
  21 C21            1.5246     5.4969     0.6294 C.ar    
  22 N22            2.8259     5.6949     0.4990 N.ar    
  23 C23           -1.0977     2.3545    -0.3424 C.3     
  24 C24           -1.7822     2.6112     0.9753 C.2     
  25 N25           -2.8507     3.4308     1.0313 N.am    
  26 C26           -3.5162     3.6803     2.3124 C.3     
  27 O27           -1.3716     2.0803     1.9855 O.2     
  28 C28           -3.3467     4.0721    -0.1889 C.3     
  29 C29            5.1359     4.9914     0.1216 C.3     
  30 O30            0.7077     6.5507     0.8810 O.3     
  31 C31            1.3223     7.8362     0.9908 C.3     
  32 H32            0.9407    -2.4339     0.0379 H       
  33 H33            2.5749    -3.9597     1.1347 H       
  34 H34            6.6813    -2.9406     0.6042 H       
  35 H35            6.0259    -0.7898    -0.3962 H       
  36 H36            3.6444    -0.2207    -0.6457 H       
  37 H37            3.9014     2.6045    -0.0782 H       
  38 H38           -0.0777     4.0668     0.6192 H       
  39 H39           -0.7291     3.2959    -0.7499 H       
  40 H40           -1.8075     1.9098    -1.0400 H       
  41 H41           -2.8064     4.1250     3.0099 H       
  42 H42           -4.3524     4.3628     2.1605 H       
  43 H43           -3.8848     2.7390     2.7198 H       
  44 H44           -4.0923     3.4309    -0.6591 H       
  45 H45           -3.7991     5.0312     0.0629 H       
  46 H46           -2.5176     4.2312    -0.8785 H       
  47 H47            5.3722     5.2049    -0.9209 H       
  48 H48            5.3946     5.8533     0.7367 H       
  49 H49            5.7067     4.1240     0.4531 H       
  50 H50            2.0453     7.8247     1.8065 H       
  51 H51            1.8313     8.0765     0.0574 H       
  52 H52            0.5590     8.5877     1.1924 H       
@<TRIPOS>BOND
   1    1    2 1
   2    1    5 1
   3    1   23 1
   4    2    3 2
   5    3    4 1
   6    3    6 1
   7    4    5 2
   8    5   19 1
   9    6    7 1
  10    6   32 1
  11    7    8 ar
  12    7   12 ar
  13    8    9 ar
  14    8   33 1
  15    9   10 ar
  16    9   13 1
  17   10   11 ar
  18   10   34 1
  19   11   12 ar
  20   11   35 1
  21   12   36 1
  22   13   14 1
  23   13   15 1
  24   13   16 1
  25   17   18 ar
  26   17   22 ar
  27   17   29 1
  28   18   19 ar
  29   18   37 1
  30   19   20 ar
  31   20   21 ar
  32   20   38 1
  33   21   22 ar
  34   21   30 1
  35   23   24 1
  36   23   39 1
  37   23   40 1
  38   24   25 am
  39   24   27 2
  40   25   26 1
  41   25   28 1
  42   26   41 1
  43   26   42 1
  44   26   43 1
  45   28   44 1
  46   28   45 1
  47   28   46 1
  48   29   47 1
  49   29   48 1
  50   29   49 1
  51   30   31 1
  52   31   50 1
  53   31   51 1
  54   31   52 1

#	End of record

