#	Name: ASD00311284
#	Creating user name:	WinNT
#	Creation time:	15. 06. 2019 18:34

#	Modifying user name:	WinNT
#	Modification time:	15. 06. 2019 18:34

#	Program:	/corina/corina34_cracker 3.40 0067  02.08.2006

@<TRIPOS>MOLECULE
ASD00311284
  40   43    0    0    0
SMALL
NO_CHARGES


@<TRIPOS>ATOM
   1 C1            -0.0167     1.3779     0.0096 C.2     
   2 C2             0.0021    -0.0041     0.0020 C.2     
   3 C3             1.2590    -0.6766    -0.0136 C.2     
   4 C4             2.4314     0.0673    -0.0208 C.2     
   5 C5             2.3574     1.4751    -0.0126 C.2     
   6 N6             1.1649     2.0904     0.0022 N.am    
   7 C7            -1.3430    -0.5749     0.0126 C.2     
   8 C8            -2.3222     0.3255     0.0274 C.2     
   9 S9            -1.6794     1.9559     0.0358 S.3     
  10 O10            3.3824     2.1371    -0.0184 O.2     
  11 C11            3.7479    -0.6121    -0.0366 C.ar    
  12 C12            4.5931    -0.4743    -1.1372 C.ar    
  13 C13            5.8183    -1.1087    -1.1469 C.ar    
  14 C14            6.2092    -1.8819    -0.0658 C.ar    
  15 C15            5.3731    -2.0218     1.0300 C.ar    
  16 C16            4.1483    -1.3868     1.0517 C.ar    
  17 F17            7.4095    -2.5018    -0.0803 F       
  18 C18           -1.5954    -2.0357     0.0066 C.ar    
  19 C19           -2.4690    -2.5977     0.9367 C.ar    
  20 C20           -2.7020    -3.9571     0.9280 C.ar    
  21 C21           -2.0679    -4.7655    -0.0054 C.ar    
  22 C22           -1.1977    -4.2093    -0.9328 C.ar    
  23 C23           -0.9642    -2.8499    -0.9330 C.ar    
  24 O24           -2.2994    -6.1049    -0.0109 O.3     
  25 C25           -1.6140    -6.8776    -0.9984 C.3     
  26 O26            1.3091    -2.0292    -0.0209 O.3     
  27 H27            1.1328     3.0599     0.0073 H       
  28 H28           -3.3747     0.0835     0.0365 H       
  29 H29            4.2890     0.1276    -1.9808 H       
  30 H30            6.4736    -1.0026    -1.9988 H       
  31 H31            5.6821    -2.6259     1.8703 H       
  32 H32            3.4991    -1.4929     1.9083 H       
  33 H33           -2.9624    -1.9693     1.6634 H       
  34 H34           -3.3783    -4.3931     1.6484 H       
  35 H35           -0.7059    -4.8412    -1.6576 H       
  36 H36           -0.2904    -2.4172    -1.6577 H       
  37 H37           -1.8938    -6.5279    -1.9921 H       
  38 H38           -0.5380    -6.7669    -0.8640 H       
  39 H39           -1.8873    -7.9274    -0.8924 H       
  40 H40            2.2064    -2.3895    -0.0315 H       
@<TRIPOS>BOND
   1    1    2 2
   2    1    6 1
   3    1    9 1
   4    2    3 1
   5    2    7 1
   6    3    4 2
   7    3   26 1
   8    4    5 1
   9    4   11 1
  10    5    6 am
  11    5   10 2
  12    6   27 1
  13    7    8 2
  14    7   18 1
  15    8    9 1
  16    8   28 1
  17   11   12 ar
  18   11   16 ar
  19   12   13 ar
  20   12   29 1
  21   13   14 ar
  22   13   30 1
  23   14   15 ar
  24   14   17 1
  25   15   16 ar
  26   15   31 1
  27   16   32 1
  28   18   19 ar
  29   18   23 ar
  30   19   20 ar
  31   19   33 1
  32   20   21 ar
  33   20   34 1
  34   21   22 ar
  35   21   24 1
  36   22   23 ar
  37   22   35 1
  38   23   36 1
  39   24   25 1
  40   25   37 1
  41   25   38 1
  42   25   39 1
  43   26   40 1

#	End of record

