#	Name: ASD00310220
#	Creating user name:	WinNT
#	Creation time:	15. 06. 2019 18:34

#	Modifying user name:	WinNT
#	Modification time:	15. 06. 2019 18:34

#	Program:	/corina/corina34_cracker 3.40 0067  02.08.2006

@<TRIPOS>MOLECULE
ASD00310220
  21   22    0    0    0
SMALL
NO_CHARGES


@<TRIPOS>ATOM
   1 N1            -0.0162     1.3424     0.0094 N.pl3   
   2 C2             0.0021    -0.0041     0.0020 C.2     
   3 C3             1.3068    -0.4493    -0.0128 C.2     
   4 C4             2.1540     0.7596    -0.0144 C.ar    
   5 C5             3.5288     0.9763    -0.0268 C.ar    
   6 C6             4.0163     2.2661    -0.0249 C.ar    
   7 C7             3.1420     3.3440    -0.0108 C.ar    
   8 C8             1.7793     3.1423     0.0016 C.ar    
   9 C9             1.2683     1.8481    -0.0001 C.ar    
  10 C10            1.7463    -1.7966    -0.0238 C.2     
  11 O11            0.9350    -2.6998    -0.0210 O.2     
  12 C12            3.6886     4.7484    -0.0084 C.3     
  13 Br13           5.8831     2.5675    -0.0410 Br      
  14 H14           -0.8216     1.8829     0.0163 H       
  15 H15           -0.8720    -0.6384     0.0070 H       
  16 H16            4.2103     0.1386    -0.0374 H       
  17 H17            1.1079     3.9882     0.0122 H       
  18 H18            2.8029    -2.0199    -0.0348 H       
  19 H19            3.8107     5.0925    -1.0354 H       
  20 H20            2.9960     5.4070     0.5156 H       
  21 H21            4.6546     4.7614     0.4964 H       
@<TRIPOS>BOND
   1    1    2 1
   2    1    9 1
   3    1   14 1
   4    2    3 2
   5    2   15 1
   6    3    4 1
   7    3   10 1
   8    4    5 ar
   9    4    9 ar
  10    5    6 ar
  11    5   16 1
  12    6    7 ar
  13    6   13 1
  14    7    8 ar
  15    7   12 1
  16    8    9 ar
  17    8   17 1
  18   10   11 2
  19   10   18 1
  20   12   19 1
  21   12   20 1
  22   12   21 1

#	End of record

