#	Name: ASD03092637
#	Creating user name:	WinNT
#	Creation time:	15. 06. 2019 20:32

#	Modifying user name:	WinNT
#	Modification time:	15. 06. 2019 20:32

#	Program:	/corina/corina34_cracker 3.40 0067  02.08.2006

@<TRIPOS>MOLECULE
ASD03092637
  50   53    0    0    0
SMALL
NO_CHARGES


@<TRIPOS>ATOM
   1 C1             0.2340     1.4444    -0.7360 C.ar    
   2 C2             0.2604     0.0360    -0.7954 C.ar    
   3 C3             1.4024    -0.6470    -0.3214 C.ar    
   4 C4             2.4529     0.1160     0.1849 C.ar    
   5 C5             2.3414     1.4978     0.2049 C.ar    
   6 N6             1.2671     2.1104    -0.2420 N.ar    
   7 N7            -1.6826     0.6765    -1.6192 N.2     
   8 N8            -0.9793     1.8296    -1.2512 N.pl3   
   9 C9            -0.9637    -0.3794    -1.3613 C.2     
  10 C10            1.4804    -2.1226    -0.3606 C.2     
  11 O11            0.5521    -2.7688    -0.8061 O.2     
  12 N12            2.5808    -2.7517     0.0976 N.am    
  13 C13            3.7557    -4.8274    -0.3126 C.ar    
  14 C14            2.6260    -4.1492     0.1273 C.ar    
  15 C15            1.5392    -4.8814     0.5988 C.ar    
  16 C16            1.6318    -6.2637     0.6091 C.ar    
  17 C17            2.7900    -6.8663     0.1548 C.ar    
  18 N18            3.8021    -6.1442    -0.2852 N.ar    
  19 C19            0.2936    -4.1874     1.0863 C.3     
  20 C20            4.9377    -4.0499    -0.8316 C.3     
  21 C21            3.4801     2.3186     0.7533 C.3     
  22 C22           -1.4345     3.1487    -1.3853 C.ar    
  23 C23           -2.2251     3.5037    -2.4703 C.ar    
  24 C24           -2.6731     4.8030    -2.6018 C.ar    
  25 C25           -2.3331     5.7540    -1.6505 C.ar    
  26 C26           -1.5432     5.4000    -0.5663 C.ar    
  27 C27           -1.0996     4.0995    -0.4303 C.ar    
  28 O28           -2.7738     7.0335    -1.7811 O.3     
  29 C29           -2.3857     7.9602    -0.7649 C.3     
  30 H30            3.3452    -0.3644     0.5583 H       
  31 H31           -1.2581    -1.4022    -1.5446 H       
  32 H32            3.3414    -2.2352     0.4067 H       
  33 H33            0.8087    -6.8636     0.9681 H       
  34 H34            2.8673    -7.9435     0.1607 H       
  35 H35           -0.4490    -4.1710     0.2885 H       
  36 H36           -0.1084    -4.7236     1.9459 H       
  37 H37            0.5371    -3.1655     1.3769 H       
  38 H38            5.5600    -3.7331     0.0054 H       
  39 H39            5.5224    -4.6812    -1.5006 H       
  40 H40            4.5856    -3.1730    -1.3749 H       
  41 H41            4.1722     2.5638    -0.0523 H       
  42 H42            3.0886     3.2381     1.1885 H       
  43 H43            4.0031     1.7475     1.5204 H       
  44 H44           -2.4893     2.7637    -3.2112 H       
  45 H45           -3.2880     5.0793    -3.4456 H       
  46 H46           -1.2788     6.1407     0.1739 H       
  47 H47           -0.4884     3.8230     0.4161 H       
  48 H48           -2.7596     7.6187     0.2003 H       
  49 H49           -1.2983     8.0271    -0.7303 H       
  50 H50           -2.8031     8.9417    -0.9897 H       
@<TRIPOS>BOND
   1    1    2 ar
   2    1    6 ar
   3    1    8 1
   4    2    3 ar
   5    2    9 1
   6    3    4 ar
   7    3   10 1
   8    4    5 ar
   9    4   30 1
  10    5    6 ar
  11    5   21 1
  12    7    8 1
  13    7    9 2
  14    8   22 1
  15    9   31 1
  16   10   11 2
  17   10   12 am
  18   12   14 1
  19   12   32 1
  20   13   14 ar
  21   13   18 ar
  22   13   20 1
  23   14   15 ar
  24   15   16 ar
  25   15   19 1
  26   16   17 ar
  27   16   33 1
  28   17   18 ar
  29   17   34 1
  30   19   35 1
  31   19   36 1
  32   19   37 1
  33   20   38 1
  34   20   39 1
  35   20   40 1
  36   21   41 1
  37   21   42 1
  38   21   43 1
  39   22   23 ar
  40   22   27 ar
  41   23   24 ar
  42   23   44 1
  43   24   25 ar
  44   24   45 1
  45   25   26 ar
  46   25   28 1
  47   26   27 ar
  48   26   46 1
  49   27   47 1
  50   28   29 1
  51   29   48 1
  52   29   49 1
  53   29   50 1

#	End of record

