#	Name: ASD00310309
#	Creating user name:	WinNT
#	Creation time:	15. 06. 2019 18:34

#	Modifying user name:	WinNT
#	Modification time:	15. 06. 2019 18:34

#	Program:	/corina/corina34_cracker 3.40 0067  02.08.2006

@<TRIPOS>MOLECULE
ASD00310309
  41   44    0    0    0
SMALL
NO_CHARGES


@<TRIPOS>ATOM
   1 C1            -0.0188     1.5336     0.0105 C.3     
   2 C2             1.0507     0.4570     0.2597 C.3     
   3 C3             1.8255     1.0651    -0.9213 C.3     
   4 C4             1.0973     2.3851    -0.6173 C.3     
   5 C5            -1.0817     1.1127    -0.9714 C.2     
   6 O6            -1.0363     0.0167    -1.4779 O.2     
   7 O7            -2.0790     1.9553    -1.2831 O.3     
   8 C8            -0.5886     2.1226     1.2751 C.ar    
   9 C9            -0.5738     3.4927     1.4647 C.ar    
  10 C10           -1.0947     4.0377     2.6208 C.ar    
  11 C11           -1.6362     3.2048     3.5981 C.ar    
  12 C12           -1.6484     1.8253     3.4018 C.ar    
  13 C13           -1.1296     1.2916     2.2395 C.ar    
  14 N14           -3.9829     5.2538     8.2791 N.pl3   
  15 C15           -5.1700     4.6176     8.2773 C.2     
  16 C16           -5.2531     3.7952     7.1742 C.2     
  17 C17           -3.9809     3.9594     6.4421 C.ar    
  18 C18           -3.4641     3.4115     5.2740 C.ar    
  19 C19           -2.1971     3.7848     4.8431 C.ar    
  20 C20           -1.4501     4.7072     5.5836 C.ar    
  21 C21           -1.9604     5.2506     6.7405 C.ar    
  22 C22           -3.2289     4.8848     7.1838 C.ar    
  23 C23           -6.3400     2.9597     6.8152 C.2     
  24 O24           -7.3323     2.9211     7.5136 O.2     
  25 Cl25           0.1323     5.1692     5.0396 Cl      
  26 H26            1.5610     0.5619     1.2171 H       
  27 H27            0.6995    -0.5582     0.0751 H       
  28 H28            2.9022     1.1130    -0.7587 H       
  29 H29            1.5609     0.6326    -1.8862 H       
  30 H30            0.7838     2.9264    -1.5100 H       
  31 H31            1.6204     3.0171     0.1003 H       
  32 H32           -2.7373     1.6408    -1.9178 H       
  33 H33           -0.1535     4.1372     0.7068 H       
  34 H34           -1.0823     5.1075     2.7680 H       
  35 H35           -2.0669     1.1752     4.1559 H       
  36 H36           -1.1423     0.2228     2.0846 H       
  37 H37           -3.6985     5.8880     8.9558 H       
  38 H38           -5.9394     4.7337     9.0262 H       
  39 H39           -4.0433     2.6990     4.7054 H       
  40 H40           -1.3761     5.9617     7.3056 H       
  41 H41           -6.2855     2.3574     5.9204 H       
@<TRIPOS>BOND
   1    1    2 1
   2    1    4 1
   3    1    5 1
   4    1    8 1
   5    2    3 1
   6    2   26 1
   7    2   27 1
   8    3    4 1
   9    3   28 1
  10    3   29 1
  11    4   30 1
  12    4   31 1
  13    5    6 2
  14    5    7 1
  15    7   32 1
  16    8    9 ar
  17    8   13 ar
  18    9   10 ar
  19    9   33 1
  20   10   11 ar
  21   10   34 1
  22   11   12 ar
  23   11   19 1
  24   12   13 ar
  25   12   35 1
  26   13   36 1
  27   14   15 1
  28   14   22 1
  29   14   37 1
  30   15   16 2
  31   15   38 1
  32   16   17 1
  33   16   23 1
  34   17   18 ar
  35   17   22 ar
  36   18   19 ar
  37   18   39 1
  38   19   20 ar
  39   20   21 ar
  40   20   25 1
  41   21   22 ar
  42   21   40 1
  43   23   24 2
  44   23   41 1

#	End of record

