#	Name: ASD01120131
#	Creating user name:	WinNT
#	Creation time:	15. 06. 2019 18:59

#	Modifying user name:	WinNT
#	Modification time:	15. 06. 2019 18:59

#	Program:	/corina/corina34_cracker 3.40 0067  02.08.2006

@<TRIPOS>MOLECULE
ASD01120131
  62   65    0    0    0
SMALL
NO_CHARGES


@<TRIPOS>ATOM
   1 C1            -8.4397     6.9337     3.9987 C.ar    
   2 C2            -9.5521     6.2941     4.5162 C.ar    
   3 C3            -9.8683     5.0149     4.1080 C.ar    
   4 C4            -9.0629     4.3656     3.1705 C.ar    
   5 C5            -7.9419     5.0168     2.6523 C.ar    
   6 C6            -7.6402     6.2980     3.0653 C.ar    
   7 C7            -9.3952     2.9954     2.7290 C.2     
   8 N8           -10.4151     2.2736     3.1349 N.2     
   9 N9           -10.3940     1.1324     2.5411 N.2     
  10 C10           -9.3598     1.0803     1.7326 C.2     
  11 O11           -8.7105     2.2582     1.8310 O.3     
  12 C12           -8.9807    -0.0578     0.8701 C.ar    
  13 C13           -9.7524    -1.2198     0.8653 C.ar    
  14 C14           -9.3905    -2.2832     0.0530 C.ar    
  15 C15           -8.2623    -2.1895    -0.7529 C.ar    
  16 C16           -7.4972    -1.0379    -0.7484 C.ar    
  17 C17           -7.8517     0.0282     0.0525 C.ar    
  18 N18          -10.1611    -3.4514     0.0449 N.am    
  19 C19          -11.5011    -3.3755     0.1674 C.2     
  20 C20          -12.3399    -4.6224     0.0538 C.3     
  21 O21          -12.0320    -2.3038     0.3690 O.2     
  22 C22          -13.8164    -4.2615     0.2295 C.3     
  23 C23          -14.6680    -5.5274     0.1142 C.3     
  24 N24          -16.0855    -5.1809     0.2829 N.3     
  25 C25          -16.9496    -6.3201    -0.0542 C.3     
  26 C26          -16.4352    -3.9941    -0.5090 C.3     
  27 C27          -17.8646    -3.5595    -0.1679 C.3     
  28 N28          -18.7592    -4.7130    -0.3479 N.am    
  29 C29          -18.4000    -5.9808     0.3055 C.3     
  30 C30          -19.8786    -4.6109    -1.0915 C.2     
  31 C31          -20.7225    -5.8314    -1.3543 C.3     
  32 O32          -20.2067    -3.5367    -1.5491 O.2     
  33 C33           -8.1008     8.3313     4.4490 C.3     
  34 H34          -10.1741     6.7974     5.2416 H       
  35 H35          -10.7368     4.5166     4.5130 H       
  36 H36           -7.3147     4.5202     1.9268 H       
  37 H37           -6.7733     6.8029     2.6653 H       
  38 H38          -10.6286    -1.2909     1.4926 H       
  39 H39           -7.9819    -3.0194    -1.3847 H       
  40 H40           -6.6215    -0.9711    -1.3769 H       
  41 H41           -7.2514     0.9261     0.0533 H       
  42 H42           -9.7308    -4.3156    -0.0489 H       
  43 H43          -12.1903    -5.0728    -0.9274 H       
  44 H44          -12.0445    -5.3308     0.8277 H       
  45 H45          -13.9660    -3.8110     1.2107 H       
  46 H46          -14.1118    -3.5531    -0.5444 H       
  47 H47          -14.5183    -5.9778    -0.8670 H       
  48 H48          -14.3725    -6.2358     0.8881 H       
  49 H49          -16.8786    -6.5270    -1.1221 H       
  50 H50          -16.6309    -7.1974     0.5086 H       
  51 H51          -15.7435    -3.1846    -0.2760 H       
  52 H52          -16.3714    -4.2334    -1.5705 H       
  53 H53          -17.9072    -3.2212     0.8674 H       
  54 H54          -18.1703    -2.7518    -0.8329 H       
  55 H55          -19.0597    -6.7739    -0.0465 H       
  56 H56          -18.4941    -5.8752     1.3863 H       
  57 H57          -20.3263    -6.6755    -0.7899 H       
  58 H58          -21.7492    -5.6368    -1.0443 H       
  59 H59          -20.7025    -6.0646    -2.4189 H       
  60 H60           -7.4444     8.2840     5.3179 H       
  61 H61           -7.5963     8.8611     3.6410 H       
  62 H62           -9.0166     8.8598     4.7138 H       
@<TRIPOS>BOND
   1    1    2 ar
   2    1   33 1
   3    1    6 ar
   4    2    3 ar
   5    2   34 1
   6    3    4 ar
   7    3   35 1
   8    4    5 ar
   9    4    7 1
  10    5    6 ar
  11    5   36 1
  12    6   37 1
  13    7    8 2
  14    7   11 1
  15    8    9 1
  16    9   10 2
  17   10   11 1
  18   10   12 1
  19   12   13 ar
  20   12   17 ar
  21   13   14 ar
  22   13   38 1
  23   14   15 ar
  24   14   18 1
  25   15   16 ar
  26   15   39 1
  27   16   17 ar
  28   16   40 1
  29   17   41 1
  30   18   19 am
  31   18   42 1
  32   19   20 1
  33   19   21 2
  34   20   22 1
  35   20   43 1
  36   20   44 1
  37   22   23 1
  38   22   45 1
  39   22   46 1
  40   23   24 1
  41   23   47 1
  42   23   48 1
  43   24   25 1
  44   24   26 1
  45   25   29 1
  46   25   49 1
  47   25   50 1
  48   26   27 1
  49   26   51 1
  50   26   52 1
  51   27   28 1
  52   27   53 1
  53   27   54 1
  54   28   29 1
  55   28   30 am
  56   29   55 1
  57   29   56 1
  58   30   31 1
  59   30   32 2
  60   31   57 1
  61   31   58 1
  62   31   59 1
  63   33   60 1
  64   33   61 1
  65   33   62 1

#	End of record

