#	Name: ASD05143047
#	Creating user name:	WinNT
#	Creation time:	15. 06. 2019 20:57

#	Modifying user name:	WinNT
#	Modification time:	15. 06. 2019 20:57

#	Program:	/corina/corina34_cracker 3.40 0067  02.08.2006

@<TRIPOS>MOLECULE
ASD05143047
 141  144    0    0    0
SMALL
NO_CHARGES


@<TRIPOS>ATOM
   1 C1            -2.1356     5.4710     7.5697 C.2     
   2 C2            -1.6517     4.7420     8.7966 C.3     
   3 N3            -1.2466     5.9989     6.7050 N.am    
   4 O4            -3.3249     5.5785     7.3578 O.2     
   5 C5            -1.7171     6.7076     5.5123 C.3     
   6 C6            -2.5516     5.7579     4.6507 C.3     
   7 C7            -2.5631     7.8835     5.9277 C.2     
   8 C8            -1.6612     4.6297     4.1262 C.3     
   9 C9            -2.4958     3.6799     3.2646 C.3     
  10 N10           -1.6432     2.5996     2.7624 N.pl3   
  11 C11           -2.1770     1.6192     1.9598 C.2     
  12 N12           -1.3768     0.6054     1.4885 N.pl3   
  13 N13           -3.4416     1.6509     1.6458 N.2     
  14 O14           -3.0562     7.9146     7.0354 O.2     
  15 N15           -2.7719     8.9005     5.0684 N.am    
  16 C16           -3.5944    10.0436     5.4723 C.3     
  17 C17           -2.6896    11.2344     5.7948 C.3     
  18 C18           -1.5373    10.7728     6.6891 C.3     
  19 C19           -0.3948    10.2950     5.8307 C.2     
  20 O20           -0.5964     9.5593     4.8878 O.2     
  21 N21            0.8724    10.7062     6.1338 N.am    
  22 C22            1.9372    10.1866     5.2457 C.3     
  23 C23            2.0935    11.1392     4.0587 C.3     
  24 C24            2.7586    10.3997     2.8961 C.3     
  25 C25            3.7217    11.3443     2.1741 C.3     
  26 N26            3.6739    11.0581     0.7262 N.am    
  27 C27            5.1221    11.1258     2.6861 C.2     
  28 N28            5.5074    11.6807     3.8524 N.am    
  29 O29            5.9024    10.4507     2.0488 O.2     
  30 C30            2.8520    11.8435    -0.0221 C.2     
  31 O31            2.2087    12.7302     0.4983 O.2     
  32 C32            2.7517    11.5978    -1.5056 C.3     
  33 N33            1.5403    12.2803    -2.0154 N.am    
  34 C34            3.9911    12.1604    -2.2045 C.3     
  35 C35            0.4861    11.4615    -2.3066 C.2     
  36 O36            0.5743    10.2619    -2.1515 O.2     
  37 C37           -0.7886    12.0772    -2.8236 C.3     
  38 N38           -1.9186    11.1891    -2.4855 N.am    
  39 C39           -0.9986    13.4450    -2.1710 C.3     
  40 C40           -3.0234    11.7834    -1.9566 C.2     
  41 O41           -3.0505    12.9825    -1.7770 O.2     
  42 C42           -4.2123    10.9297    -1.5979 C.3     
  43 C43            3.9466    11.8057    -3.6685 C.2     
  44 C44            3.2535    12.5479    -4.7242 C.ar    
  45 C45            3.4933    11.8422    -5.9171 C.ar    
  46 N46            4.2748    10.7551    -5.5958 N.pl3   
  47 C47            4.5395    10.7530    -4.2534 C.2     
  48 C48            2.4796    13.7099    -4.7457 C.ar    
  49 C49            1.9585    14.1561    -5.9272 C.ar    
  50 C50            2.1920    13.4629    -7.1073 C.ar    
  51 C51            2.9532    12.3149    -7.1090 C.ar    
  52 N52           -4.8007    11.4405    -0.3388 N.am    
  53 C53           -3.7634     9.4800    -1.4036 C.3     
  54 C54           -4.9647     8.6160    -1.1184 C.ar    
  55 C55           -5.9951     8.5407    -2.0362 C.ar    
  56 C56           -7.0979     7.7470    -1.7744 C.ar    
  57 C57           -7.1683     7.0294    -0.5939 C.ar    
  58 C58           -6.1370     7.1055     0.3235 C.ar    
  59 C59           -5.0333     7.8944     0.0590 C.ar    
  60 C60           -4.5283    10.4127     4.3484 C.2     
  61 O61           -5.7274    10.2846     4.4778 O.2     
  62 C62           -1.0178    13.2866    -0.6494 C.3     
  63 C63           -1.3683    14.6276    -0.0014 C.3     
  64 N64           -1.3866    14.4759     1.4557 N.pl3   
  65 C65           -1.6792    15.5551     2.2555 C.2     
  66 N66           -1.6965    15.4127     3.6229 N.pl3   
  67 N67           -1.9403    16.7132     1.7176 N.2     
  68 N68           -4.0066    10.8914     3.1857 N.am    
  69 C69           -4.9702    11.2363     2.1213 C.3     
  70 O70           -3.9705    13.4013     1.7294 O.3     
  71 C71           -5.1881    12.7505     2.0980 C.3     
  72 C72           -4.4125    10.7859     0.7958 C.2     
  73 O73           -3.6332     9.8585     0.7372 O.2     
  74 Cl74          -8.3929     7.6524    -2.9267 Cl      
  75 H75           -1.0571     5.4186     9.4104 H       
  76 H76           -2.5082     4.3885     9.3707 H       
  77 H77           -1.0397     3.8915     8.4961 H       
  78 H78           -0.2954     5.9095     6.8724 H       
  79 H79           -0.8606     7.0611     4.9382 H       
  80 H80           -3.3572     5.3356     5.2513 H       
  81 H81           -2.9750     6.3074     3.8099 H       
  82 H82           -0.8556     5.0520     3.5256 H       
  83 H83           -1.2379     4.0802     4.9670 H       
  84 H84           -3.3014     3.2576     3.8652 H       
  85 H85           -2.9191     4.2294     2.4238 H       
  86 H86           -0.7020     2.5760     2.9961 H       
  87 H87           -0.4357     0.5818     1.7222 H       
  88 H88           -1.7534    -0.0864     0.9223 H       
  89 H89           -3.8182     0.9592     1.0796 H       
  90 H90           -2.3775     8.8757     4.1825 H       
  91 H91           -4.1755     9.7791     6.3556 H       
  92 H92           -2.2881    11.6468     4.8691 H       
  93 H93           -3.2673    11.9998     6.3129 H       
  94 H94           -1.2028    11.6047     7.3090 H       
  95 H95           -1.8774     9.9577     7.3279 H       
  96 H96            1.0614    11.2978     6.8789 H       
  97 H97            2.8767    10.1301     5.7954 H       
  98 H98            1.6615     9.1955     4.8853 H       
  99 H99            1.1117    11.4966     3.7479 H       
 100 H100           2.7127    11.9868     4.3520 H       
 101 H101           3.3107     9.5416     3.2796 H       
 102 H102           1.9943    10.0574     2.1984 H       
 103 H103           3.4225    12.3771     2.3524 H       
 104 H104           4.2007    10.3470     0.3291 H       
 105 H105           4.8834    12.2207     4.3621 H       
 106 H106           6.4088    11.5401     4.1819 H       
 107 H107           2.6757    10.5271    -1.6950 H       
 108 H108           1.4984    13.2420    -2.1348 H       
 109 H109           4.0099    13.2446    -2.0937 H       
 110 H110           4.8873    11.7335    -1.7543 H       
 111 H111          -0.7257    12.1925    -3.9056 H       
 112 H112          -1.8759    10.2312    -2.6325 H       
 113 H113          -0.1856    14.1125    -2.4566 H       
 114 H114          -1.9476    13.8649    -2.5046 H       
 115 H115          -4.9536    10.9816    -2.3954 H       
 116 H116           4.5934    10.0916    -6.2277 H       
 117 H117           5.1313    10.0101    -3.7393 H       
 118 H118           2.2932    14.2539    -3.8315 H       
 119 H119           1.3600    15.0549    -5.9434 H       
 120 H120           1.7730    13.8278    -8.0334 H       
 121 H121           3.1293    11.7829    -8.0322 H       
 122 H122          -5.4185    12.1881    -0.3207 H       
 123 H123          -3.2695     9.1281    -2.3093 H       
 124 H124          -3.0685     9.4241    -0.5657 H       
 125 H125          -5.9397     9.1015    -2.9575 H       
 126 H126          -8.0289     6.4100    -0.3888 H       
 127 H127          -6.1918     6.5453     1.2452 H       
 128 H128          -4.2276     7.9533     0.7759 H       
 129 H129          -1.7640    12.5425    -0.3709 H       
 130 H130          -0.0355    12.9625    -0.3054 H       
 131 H131          -0.6220    15.3717    -0.2798 H       
 132 H132          -2.3505    14.9516    -0.3453 H       
 133 H133          -1.1923    13.6140     1.8560 H       
 134 H134          -1.5022    14.5508     4.0233 H       
 135 H135          -1.9029    16.1742     4.1872 H       
 136 H136          -2.1468    17.4747     2.2819 H       
 137 H137          -3.0506    11.0007     3.0628 H       
 138 H138          -5.9187    10.7337     2.3105 H       
 139 H139          -4.0349    14.3656     1.6942 H       
 140 H140          -5.9645    12.9947     1.3731 H       
 141 H141          -5.4956    13.0886     3.0876 H       
@<TRIPOS>BOND
   1    1    2 1
   2    1    3 am
   3    1    4 2
   4    2   75 1
   5    2   76 1
   6    2   77 1
   7    3    5 1
   8    3   78 1
   9    5    6 1
  10    5    7 1
  11    5   79 1
  12    6    8 1
  13    6   80 1
  14    6   81 1
  15    7   14 2
  16    7   15 am
  17    8    9 1
  18    8   82 1
  19    8   83 1
  20    9   10 1
  21    9   84 1
  22    9   85 1
  23   10   11 1
  24   10   86 1
  25   11   12 1
  26   11   13 2
  27   12   87 1
  28   12   88 1
  29   13   89 1
  30   15   16 1
  31   15   90 1
  32   16   17 1
  33   16   60 1
  34   16   91 1
  35   17   18 1
  36   17   92 1
  37   17   93 1
  38   18   19 1
  39   18   94 1
  40   18   95 1
  41   19   20 2
  42   19   21 am
  43   21   22 1
  44   21   96 1
  45   22   23 1
  46   22   97 1
  47   22   98 1
  48   23   24 1
  49   23   99 1
  50   23  100 1
  51   24   25 1
  52   24  101 1
  53   24  102 1
  54   25   26 1
  55   25   27 1
  56   25  103 1
  57   26   30 am
  58   26  104 1
  59   27   28 am
  60   27   29 2
  61   28  105 1
  62   28  106 1
  63   30   31 2
  64   30   32 1
  65   32   33 1
  66   32   34 1
  67   32  107 1
  68   33   35 am
  69   33  108 1
  70   34   43 1
  71   34  109 1
  72   34  110 1
  73   35   36 2
  74   35   37 1
  75   37   38 1
  76   37   39 1
  77   37  111 1
  78   38   40 am
  79   38  112 1
  80   39   62 1
  81   39  113 1
  82   39  114 1
  83   40   41 2
  84   40   42 1
  85   42   52 1
  86   42   53 1
  87   42  115 1
  88   43   44 1
  89   43   47 2
  90   44   45 ar
  91   44   48 ar
  92   45   46 1
  93   45   51 ar
  94   46   47 1
  95   46  116 1
  96   47  117 1
  97   48   49 ar
  98   48  118 1
  99   49   50 ar
 100   49  119 1
 101   50   51 ar
 102   50  120 1
 103   51  121 1
 104   52   72 am
 105   52  122 1
 106   53   54 1
 107   53  123 1
 108   53  124 1
 109   54   55 ar
 110   54   59 ar
 111   55   56 ar
 112   55  125 1
 113   56   57 ar
 114   56   74 1
 115   57   58 ar
 116   57  126 1
 117   58   59 ar
 118   58  127 1
 119   59  128 1
 120   60   61 2
 121   60   68 am
 122   62   63 1
 123   62  129 1
 124   62  130 1
 125   63   64 1
 126   63  131 1
 127   63  132 1
 128   64   65 1
 129   64  133 1
 130   65   66 1
 131   65   67 2
 132   66  134 1
 133   66  135 1
 134   67  136 1
 135   68   69 1
 136   68  137 1
 137   69   71 1
 138   69   72 1
 139   69  138 1
 140   70   71 1
 141   70  139 1
 142   71  140 1
 143   71  141 1
 144   72   73 2

#	End of record

