#	Name: ASD08150747
#	Creating user name:	WinNT
#	Creation time:	15. 06. 2019 21:16

#	Modifying user name:	WinNT
#	Modification time:	15. 06. 2019 21:16

#	Program:	/corina/corina34_cracker 3.40 0067  02.08.2006

@<TRIPOS>MOLECULE
ASD08150747
  38   40    0    0    0
SMALL
NO_CHARGES


@<TRIPOS>ATOM
   1 C1            -0.1647     1.4682    -0.5488 C.2     
   2 C2            -0.1404    -0.0049    -0.5438 C.ar    
   3 C3             0.4692    -0.6981     0.5143 C.ar    
   4 C4             0.4855    -2.0867     0.5073 C.ar    
   5 C5            -0.0949    -2.7807    -0.5354 C.ar    
   6 C6            -0.6969    -2.1014    -1.5816 C.ar    
   7 C7            -0.7292    -0.7221    -1.5900 C.ar    
   8 O8             0.7416     2.0896    -1.0699 O.2     
   9 N9            -1.1941     2.1270     0.0193 N.am    
  10 Cl10          -1.4925     0.1217    -2.9011 Cl      
  11 C11           -2.3464     4.2591     0.0191 C.ar    
  12 C12           -1.1619     3.5197     0.1192 C.ar    
  13 C13            0.0439     4.1759     0.3184 C.ar    
  14 C14            0.0735     5.5538     0.4179 C.ar    
  15 C15           -1.0962     6.2865     0.3197 C.ar    
  16 C16           -2.3035     5.6471     0.1214 C.ar    
  17 C17           -3.6400     3.5678    -0.2001 C.ar    
  18 C18           -4.7347     3.8580     0.6124 C.ar    
  19 C19           -5.9360     3.2116     0.4039 C.ar    
  20 C20           -6.0549     2.2771    -0.6091 C.ar    
  21 C21           -4.9717     1.9847    -1.4182 C.ar    
  22 C22           -3.7672     2.6295    -1.2229 C.ar    
  23 N23            1.0531     0.0014     1.5625 N.pl3   
  24 H24            0.9534    -2.6246     1.3186 H       
  25 H25           -0.0792    -3.8606    -0.5356 H       
  26 H26           -1.1474    -2.6543    -2.3926 H       
  27 H27           -1.9574     1.6340     0.3588 H       
  28 H28            0.9601     3.6094     0.3962 H       
  29 H29            1.0141     6.0612     0.5734 H       
  30 H30           -1.0645     7.3632     0.3988 H       
  31 H31           -3.2139     6.2230     0.0450 H       
  32 H32           -4.6428     4.5872     1.4038 H       
  33 H33           -6.7848     3.4354     1.0330 H       
  34 H34           -6.9970     1.7736    -0.7687 H       
  35 H35           -5.0700     1.2537    -2.2071 H       
  36 H36           -2.9236     2.4042    -1.8585 H       
  37 H37            1.0406     0.9714     1.5648 H       
  38 H38            1.4735    -0.4799     2.2922 H       
@<TRIPOS>BOND
   1    1    2 1
   2    1    8 2
   3    1    9 am
   4    2    3 ar
   5    2    7 ar
   6    3    4 ar
   7    3   23 1
   8    4    5 ar
   9    4   24 1
  10    5    6 ar
  11    5   25 1
  12    6    7 ar
  13    6   26 1
  14    7   10 1
  15    9   12 1
  16    9   27 1
  17   11   12 ar
  18   11   16 ar
  19   11   17 1
  20   12   13 ar
  21   13   14 ar
  22   13   28 1
  23   14   15 ar
  24   14   29 1
  25   15   16 ar
  26   15   30 1
  27   16   31 1
  28   17   18 ar
  29   17   22 ar
  30   18   19 ar
  31   18   32 1
  32   19   20 ar
  33   19   33 1
  34   20   21 ar
  35   20   34 1
  36   21   22 ar
  37   21   35 1
  38   22   36 1
  39   23   37 1
  40   23   38 1

#	End of record

