#	Name: ASD08070022
#	Creating user name:	WinNT
#	Creation time:	15. 06. 2019 21:14

#	Modifying user name:	WinNT
#	Modification time:	15. 06. 2019 21:14

#	Program:	/corina/corina34_cracker 3.40 0067  02.08.2006

@<TRIPOS>MOLECULE
ASD08070022
  42   43    0    0    0
SMALL
NO_CHARGES


@<TRIPOS>ATOM
   1 C1            -0.0168     1.3882     0.0097 C.ar    
   2 C2             0.0021    -0.0041     0.0020 C.ar    
   3 C3            -1.1728    -0.7233     0.0094 C.ar    
   4 C4            -2.3946    -0.0611     0.0241 C.ar    
   5 C5            -2.4165     1.3459     0.0319 C.ar    
   6 C6            -1.2196     2.0662     0.0305 C.ar    
   7 O7            -3.6735    -0.4880     0.0336 O.3     
   8 C8            -4.5283     0.5558     0.0470 C.2     
   9 C9            -3.8301     1.7207     0.0469 C.2     
  10 C10           -5.9941     0.4484     0.0603 C.2     
  11 N11           -6.5809    -0.7649     0.0601 N.am    
  12 O12           -6.6777     1.4547     0.0715 O.2     
  13 C13           -8.0419    -0.8719     0.0734 C.3     
  14 C14           -8.5733    -0.7770    -1.3582 C.3     
  15 C15           -8.4493    -2.2159     0.6806 C.3     
  16 O16           -8.0002    -3.2765    -0.1654 O.3     
  17 C17           -8.2744     0.6136    -1.9220 C.3     
  18 O18            1.1525     2.0821     0.0022 O.3     
  19 C19            2.3601     1.3183    -0.0134 C.3     
  20 C20           -8.8058     0.7085    -3.3536 C.3     
  21 C21           -8.3313    -4.5816     0.3133 C.3     
  22 H22            0.9477    -0.5256    -0.0102 H       
  23 H23           -1.1445    -1.8029     0.0033 H       
  24 H24           -1.2349     3.1460     0.0365 H       
  25 H25           -4.2365     2.7213     0.0567 H       
  26 H26           -6.0359    -1.5672     0.0512 H       
  27 H27           -8.4602    -0.0617     0.6706 H       
  28 H28           -8.0878    -1.5319    -1.9768 H       
  29 H29           -9.6502    -0.9452    -1.3580 H       
  30 H30           -7.9969    -2.3212     1.6666 H       
  31 H31           -9.5346    -2.2591     0.7723 H       
  32 H32           -8.7599     1.3684    -1.3035 H       
  33 H33           -7.1975     0.7818    -1.9223 H       
  34 H34            2.4010     0.6850     0.8728 H       
  35 H35            2.3840     0.6946    -0.9070 H       
  36 H36            3.2165     1.9926    -0.0180 H       
  37 H37           -8.5929     1.6991    -3.7553 H       
  38 H38           -8.3203    -0.0464    -3.9722 H       
  39 H39           -9.8827     0.5402    -3.3534 H       
  40 H40           -7.8764    -4.7360     1.2917 H       
  41 H41           -9.4141    -4.6739     0.3974 H       
  42 H42           -7.9560    -5.3304    -0.3842 H       
@<TRIPOS>BOND
   1    1    2 ar
   2    1   18 1
   3    1    6 ar
   4    2    3 ar
   5    2   22 1
   6    3    4 ar
   7    3   23 1
   8    4    5 ar
   9    4    7 1
  10    5    6 ar
  11    5    9 1
  12    6   24 1
  13    7    8 1
  14    8    9 2
  15    8   10 1
  16    9   25 1
  17   10   11 am
  18   10   12 2
  19   11   13 1
  20   11   26 1
  21   13   14 1
  22   13   15 1
  23   13   27 1
  24   14   17 1
  25   14   28 1
  26   14   29 1
  27   15   16 1
  28   15   30 1
  29   15   31 1
  30   16   21 1
  31   17   20 1
  32   17   32 1
  33   17   33 1
  34   18   19 1
  35   19   34 1
  36   19   35 1
  37   19   36 1
  38   20   37 1
  39   20   38 1
  40   20   39 1
  41   21   40 1
  42   21   41 1
  43   21   42 1

#	End of record

