#	Name: ASD01840332
#	Creating user name:	WinNT
#	Creation time:	15. 06. 2019 19:37

#	Modifying user name:	WinNT
#	Modification time:	15. 06. 2019 19:37

#	Program:	/corina/corina34_cracker 3.40 0067  02.08.2006

@<TRIPOS>MOLECULE
ASD01840332
  32   35    0    0    0
SMALL
NO_CHARGES


@<TRIPOS>ATOM
   1 C1            -0.0184     1.5028     0.0103 C.3     
   2 C2             0.0021    -0.0041     0.0020 C.ar    
   3 C3             0.0062    -0.7086    -1.1854 C.ar    
   4 Cl4           -0.0117     0.1418    -2.6988 Cl      
   5 N5             0.0241    -2.0303    -1.1705 N.ar    
   6 N6             0.0383    -2.7069    -0.0836 N.ar    
   7 C7             0.0360    -2.1269     1.1202 C.ar    
   8 S8             0.0536    -2.8415     2.7243 S.3     
   9 C9             0.0363    -1.2783     3.5200 C.ar    
  10 C10            0.0393    -0.9457     4.8905 C.ar    
  11 N11            0.0243     0.3325     5.2414 N.ar    
  12 C12            0.0067     1.2843     4.3264 C.ar    
  13 N13            0.0033     1.0205     3.0429 N.ar    
  14 C14            0.0177    -0.2503     2.5913 C.ar    
  15 C15            0.0235    -0.7367     1.2067 C.ar    
  16 N16            0.0572    -1.9401     5.8558 N.3     
  17 C17           -1.1172    -2.8284     5.7233 C.3     
  18 C18           -1.4629    -3.2462     7.1744 C.3     
  19 C19           -1.1642    -1.9399     7.9562 C.3     
  20 C20            0.0570    -1.3606     7.2115 C.3     
  21 H21            1.0042     1.8801     0.0026 H       
  22 H22           -0.5455     1.8639    -0.8728 H       
  23 H23           -0.5286     1.8543     0.9071 H       
  24 H24           -0.0056     2.3156     4.6468 H       
  25 H25           -1.9517    -2.2896     5.2745 H       
  26 H26           -0.8649    -3.7046     5.1260 H       
  27 H27           -2.5139    -3.5217     7.2615 H       
  28 H28           -0.8187    -4.0585     7.5108 H       
  29 H29           -2.0104    -1.2551     7.8999 H       
  30 H30           -0.9139    -2.1605     8.9938 H       
  31 H31            0.9739    -1.6359     7.7327 H       
  32 H32           -0.0262    -0.2754     7.1509 H       
@<TRIPOS>BOND
   1    1    2 1
   2    1   21 1
   3    1   22 1
   4    1   23 1
   5    2   15 ar
   6    2    3 ar
   7    3    4 1
   8    3    5 ar
   9    5    6 ar
  10    6    7 ar
  11    7   15 ar
  12    7    8 1
  13    8    9 1
  14    9   14 ar
  15    9   10 ar
  16   10   11 ar
  17   10   16 1
  18   11   12 ar
  19   12   13 ar
  20   12   24 1
  21   13   14 ar
  22   14   15 1
  23   16   20 1
  24   16   17 1
  25   17   18 1
  26   17   25 1
  27   17   26 1
  28   18   19 1
  29   18   27 1
  30   18   28 1
  31   19   20 1
  32   19   29 1
  33   19   30 1
  34   20   31 1
  35   20   32 1

#	End of record

