#	Name: ASD09740038
#	Creating user name:	WinNT
#	Creation time:	15. 06. 2019 21:22

#	Modifying user name:	WinNT
#	Modification time:	15. 06. 2019 21:22

#	Program:	/corina/corina34_cracker 3.40 0067  02.08.2006

@<TRIPOS>MOLECULE
ASD09740038
  53   56    0    0    0
SMALL
NO_CHARGES


@<TRIPOS>ATOM
   1 N1            -0.0144     1.2085     0.0087 N.2     
   2 O2             0.0021    -0.0041     0.0020 O.3     
   3 C3             1.2060     1.6802    -0.0004 C.2     
   4 N4             2.0461     0.6244    -0.0141 N.2     
   5 C5             1.2702    -0.4440    -0.0125 C.2     
   6 C6             1.7127    -1.8529    -0.0238 C.ar    
   7 C7             1.5947     3.1129     0.0031 C.ar    
   8 C8             2.9402     3.4693    -0.0083 C.ar    
   9 C9             3.2966     4.8029    -0.0053 C.ar    
  10 C10            2.3201     5.7804     0.0094 C.ar    
  11 C11            0.9782     5.4334     0.0212 C.ar    
  12 C12            0.6113     4.1030     0.0120 C.ar    
  13 C13            3.0757    -2.1588    -0.0380 C.ar    
  14 C14            0.7697    -2.8831    -0.0146 C.ar    
  15 C15            1.1866    -4.1963    -0.0247 C.ar    
  16 C16            2.5429    -4.4963    -0.0442 C.ar    
  17 C17            3.4844    -3.4742    -0.0481 C.ar    
  18 O18            2.9498    -5.7916    -0.0537 O.3     
  19 C19            4.3588    -6.0289    -0.0736 C.3     
  20 C20            4.6221    -7.5361    -0.0819 C.3     
  21 C21           -0.2591     6.3055     0.0384 C.3     
  22 C22           -1.4047     5.3726     0.4851 C.3     
  23 C23           -0.8977     3.9867     0.0281 C.3     
  24 N24           -0.0941     7.4056     0.9978 N.3     
  25 C25            0.5793     8.5522     0.3734 C.3     
  26 C26            0.7328     9.6751     1.4012 C.3     
  27 O27            1.6071     9.2471     2.4474 O.3     
  28 C28            0.1700    -5.3087    -0.0143 C.3     
  29 F29           -1.1181    -4.7630     0.0055 F       
  30 F30            0.3262    -6.0940    -1.1614 F       
  31 F31            0.3580    -6.1016     1.1229 F       
  32 H32            3.7030     2.7048    -0.0191 H       
  33 H33            4.3397     5.0825    -0.0141 H       
  34 H34            2.6045     6.8223     0.0122 H       
  35 H35            3.8080    -1.3650    -0.0414 H       
  36 H36           -0.2849    -2.6506     0.0009 H       
  37 H37            4.5379    -3.7114    -0.0632 H       
  38 H38            4.7902    -5.5798    -0.9682 H       
  39 H39            4.8145    -5.5853     0.8116 H       
  40 H40            5.6968    -7.7171    -0.0971 H       
  41 H41            4.1906    -7.9852     0.8127 H       
  42 H42            4.1663    -7.9797    -0.9671 H       
  43 H43           -0.4585     6.6988    -0.9585 H       
  44 H44           -1.5310     5.4047     1.5673 H       
  45 H45           -2.3343     5.6298    -0.0225 H       
  46 H46           -1.2705     3.7578    -0.9702 H       
  47 H47           -1.2099     3.2178     0.7348 H       
  48 H48           -0.9822     7.6783     1.3916 H       
  49 H49            1.5638     8.2466     0.0193 H       
  50 H50           -0.0150     8.9085    -0.4680 H       
  51 H51            1.1512    10.5570     0.9161 H       
  52 H52           -0.2431     9.9198     1.8206 H       
  53 H53            1.7507     9.9105     3.1361 H       
@<TRIPOS>BOND
   1    1    2 1
   2    1    3 2
   3    2    5 1
   4    3    4 1
   5    3    7 1
   6    4    5 2
   7    5    6 1
   8    6   13 ar
   9    6   14 ar
  10    7    8 ar
  11    7   12 ar
  12    8    9 ar
  13    8   32 1
  14    9   10 ar
  15    9   33 1
  16   10   11 ar
  17   10   34 1
  18   11   12 ar
  19   11   21 1
  20   12   23 1
  21   13   17 ar
  22   13   35 1
  23   14   15 ar
  24   14   36 1
  25   15   16 ar
  26   15   28 1
  27   16   17 ar
  28   16   18 1
  29   17   37 1
  30   18   19 1
  31   19   20 1
  32   19   38 1
  33   19   39 1
  34   20   40 1
  35   20   41 1
  36   20   42 1
  37   21   22 1
  38   21   24 1
  39   21   43 1
  40   22   23 1
  41   22   44 1
  42   22   45 1
  43   23   46 1
  44   23   47 1
  45   24   25 1
  46   24   48 1
  47   25   26 1
  48   25   49 1
  49   25   50 1
  50   26   27 1
  51   26   51 1
  52   26   52 1
  53   27   53 1
  54   28   29 1
  55   28   30 1
  56   28   31 1

#	End of record

