#	Name: ASD03110014
#	Creating user name:	WinNT
#	Creation time:	15. 06. 2019 20:33

#	Modifying user name:	WinNT
#	Modification time:	15. 06. 2019 20:33

#	Program:	/corina/corina34_cracker 3.40 0067  02.08.2006

@<TRIPOS>MOLECULE
ASD03110014
  47   50    0    0    0
SMALL
NO_CHARGES


@<TRIPOS>ATOM
   1 C1            -0.0167     1.3837     0.0096 C.ar    
   2 C2             0.0021    -0.0041     0.0020 C.ar    
   3 C3             1.2033    -0.6765    -0.0130 C.ar    
   4 C4             2.4013     0.0355    -0.0206 C.ar    
   5 C5             2.3914     1.4362    -0.0130 C.ar    
   6 C6             1.1424     2.0967     0.0024 C.ar    
   7 S7             4.0773    -0.5072    -0.0395 S.3     
   8 C8             4.6286     1.1626    -0.0358 C.2     
   9 N9             3.6194     1.9666    -0.0219 N.2     
  10 C10            6.0454     1.5848    -0.0466 C.ar    
  11 C11            6.3691     2.9434    -0.0425 C.ar    
  12 C12            7.0599     0.6249    -0.0551 C.ar    
  13 C13            8.3792     1.0176    -0.0643 C.ar    
  14 C14            8.7033     2.3768    -0.0655 C.ar    
  15 C15            7.6881     3.3368    -0.0525 C.ar    
  16 C16           10.1189     2.7986    -0.0748 C.2     
  17 O17           11.0022     1.9631    -0.0814 O.2     
  18 N18           10.4314     4.1097    -0.0760 N.am    
  19 N19           11.7740     4.5098    -0.0848 N.2     
  20 C20           12.0752     5.7732    -0.0859 C.2     
  21 C21           13.4867     6.1938    -0.0952 C.ar    
  22 C22           13.8112     7.5545    -0.0964 C.ar    
  23 C23           14.5031     5.2326    -0.0970 C.ar    
  24 C24           15.8119     5.6229    -0.1057 C.ar    
  25 C25           16.1360     6.9832    -0.1127 C.ar    
  26 C26           15.1202     7.9443    -0.1051 C.ar    
  27 C27           17.5498     7.4045    -0.1221 C.2     
  28 O28           18.4325     6.5696    -0.1236 O.2     
  29 O29           17.8622     8.7153    -0.1288 O.3     
  30 C30           19.2735     9.0566    -0.1379 C.3     
  31 H31           -0.9630     1.9042     0.0169 H       
  32 H32           -0.9259    -0.5566     0.0082 H       
  33 H33            1.2173    -1.7564    -0.0186 H       
  34 H34            1.1074     3.1761     0.0085 H       
  35 H35            5.5844     3.6854    -0.0317 H       
  36 H36            6.8093    -0.4256    -0.0542 H       
  37 H37            9.1636     0.2753    -0.0701 H       
  38 H38            7.9383     4.3875    -0.0538 H       
  39 H39            9.7267     4.7762    -0.0707 H       
  40 H40           11.2906     6.5153    -0.0801 H       
  41 H41           13.0267     8.2968    -0.0909 H       
  42 H42           14.2529     4.1820    -0.0912 H       
  43 H43           16.5967     4.8809    -0.1067 H       
  44 H44           15.3707     8.9948    -0.1106 H       
  45 H45           19.3851    10.1408    -0.1427 H       
  46 H46           19.7523     8.6460     0.7511 H       
  47 H47           19.7426     8.6391    -1.0288 H       
@<TRIPOS>BOND
   1    1    2 ar
   2    1    6 ar
   3    1   31 1
   4    2    3 ar
   5    2   32 1
   6    3    4 ar
   7    3   33 1
   8    4    5 ar
   9    4    7 1
  10    5    6 ar
  11    5    9 1
  12    6   34 1
  13    7    8 1
  14    8    9 2
  15    8   10 1
  16   10   11 ar
  17   10   12 ar
  18   11   15 ar
  19   11   35 1
  20   12   13 ar
  21   12   36 1
  22   13   14 ar
  23   13   37 1
  24   14   15 ar
  25   14   16 1
  26   15   38 1
  27   16   17 2
  28   16   18 am
  29   18   19 1
  30   18   39 1
  31   19   20 2
  32   20   21 1
  33   20   40 1
  34   21   22 ar
  35   21   23 ar
  36   22   26 ar
  37   22   41 1
  38   23   24 ar
  39   23   42 1
  40   24   25 ar
  41   24   43 1
  42   25   26 ar
  43   25   27 1
  44   26   44 1
  45   27   28 2
  46   27   29 1
  47   29   30 1
  48   30   45 1
  49   30   46 1
  50   30   47 1

#	End of record

