#	Name: ASD01320063
#	Creating user name:	WinNT
#	Creation time:	15. 06. 2019 19:15

#	Modifying user name:	WinNT
#	Modification time:	15. 06. 2019 19:15

#	Program:	/corina/corina34_cracker 3.40 0067  02.08.2006

@<TRIPOS>MOLECULE
ASD01320063
 131  136    0    0    0
SMALL
NO_CHARGES


@<TRIPOS>ATOM
   1 C1             2.7319    -2.2886    -3.1033 C.3     
   2 C2             2.6115    -3.7818    -2.7925 C.3     
   3 C3             3.2030    -4.0643    -1.4100 C.3     
   4 C4             3.0826    -5.5575    -1.0992 C.3     
   5 C5             3.6740    -5.8400     0.2833 C.3     
   6 C6             3.5536    -7.3333     0.5941 C.3     
   7 C7             4.1451    -7.6158     1.9766 C.3     
   8 C8             4.0247    -9.1090     2.2874 C.3     
   9 C9             4.6161    -9.3915     3.6699 C.3     
  10 C10            4.4957   -10.8848     3.9808 C.3     
  11 C11            5.0872   -11.1672     5.3632 C.3     
  12 C12            4.9686   -12.6380     5.6694 C.2     
  13 O13            4.4629   -13.3838     4.8644 O.2     
  14 O14            5.4247   -13.1196     6.8363 O.3     
  15 C15            5.2773   -14.5461     7.0635 C.3     
  16 C16            5.8417   -14.9005     8.4152 C.2     
  17 N17            5.8846   -16.1165     8.9709 N.2     
  18 N18            6.4377   -16.0260    10.1287 N.2     
  19 N19            6.7654   -14.8048    10.3699 N.pl3   
  20 C20            6.4103   -14.0518     9.3032 C.2     
  21 C21            7.4161   -14.3152    11.5877 C.3     
  22 C22            6.6024   -14.7206    12.7897 C.2     
  23 O23            5.5836   -15.3535    12.6440 O.2     
  24 O24            7.0096   -14.3785    14.0222 O.3     
  25 C25            6.1743   -14.8038    15.1360 C.3     
  26 C26            6.6316   -16.1752    15.6152 C.3     
  27 C27            5.8132   -16.6155    16.8251 C.3     
  28 C28            6.0426   -15.6341    17.9896 C.3     
  29 C29            5.6296   -14.2417    17.5327 C.3     
  30 C30            6.2470   -13.7527    16.2442 C.3     
  31 C31            7.6876   -13.2736    16.4157 C.3     
  32 C32            5.4237   -12.5390    15.7444 C.3     
  33 C33            5.7899   -13.2565    18.6904 C.3     
  34 C34            4.7352   -13.6384    19.7450 C.3     
  35 C35            4.9949   -15.0472    20.2705 C.3     
  36 C36            5.1366   -16.0619    19.1448 C.3     
  37 C37            5.5810   -17.4053    19.7227 C.3     
  38 C38            4.6579   -17.7977    20.8442 C.2     
  39 C39            3.9016   -16.9585    21.4877 C.2     
  40 C40            3.8540   -15.4824    21.1969 C.3     
  41 C41            2.5215   -15.2391    20.4714 C.3     
  42 C42            3.8268   -14.6556    22.4740 C.3     
  43 C43            2.8333   -15.2076    23.4971 C.3     
  44 C44            3.1564   -16.6668    23.8271 C.3     
  45 C45            2.9705   -17.4969    22.5585 C.3     
  46 C46            3.2364   -18.9692    22.8272 C.3     
  47 C47            2.3268   -19.4986    23.9350 C.3     
  48 C48            0.8746   -19.5260    23.4527 C.3     
  49 C49            2.7522   -20.9370    24.2717 C.3     
  50 C50            2.4406   -18.6493    25.1961 C.3     
  51 C51            2.2034   -17.1714    24.9100 C.3     
  52 C52            4.5742   -16.7651    24.3223 C.2     
  53 O53            5.3747   -17.4498    23.7304 O.2     
  54 O54            4.9494   -16.0921    25.4214 O.3     
  55 C55            6.2798   -15.0162    21.1149 C.3     
  56 C56            7.5145   -15.7106    18.3800 C.3     
  57 H57            3.7826    -1.9985    -3.0914 H       
  58 H58            2.3106    -2.0873    -4.0882 H       
  59 H59            2.1884    -1.7160    -2.3517 H       
  60 H60            1.5609    -4.0718    -2.8044 H       
  61 H61            3.1550    -4.3543    -3.5441 H       
  62 H62            4.2536    -3.7743    -1.3981 H       
  63 H63            2.6595    -3.4918    -0.6584 H       
  64 H64            2.0319    -5.8476    -1.1110 H       
  65 H65            3.6261    -6.1301    -1.8508 H       
  66 H66            4.7247    -5.5500     0.2952 H       
  67 H67            3.1305    -5.2675     1.0349 H       
  68 H68            2.5030    -7.6233     0.5823 H       
  69 H69            4.0971    -7.9058    -0.1575 H       
  70 H70            5.1957    -7.3257     1.9885 H       
  71 H71            3.6016    -7.0432     2.7282 H       
  72 H72            2.9740    -9.3991     2.2756 H       
  73 H73            4.5682    -9.6816     1.5358 H       
  74 H74            5.6668    -9.1015     3.6818 H       
  75 H75            4.0726    -8.8190     4.4215 H       
  76 H76            3.4451   -11.1748     3.9689 H       
  77 H77            5.0392   -11.4573     3.2292 H       
  78 H78            6.1378   -10.8772     5.3751 H       
  79 H79            4.5437   -10.5947     6.1148 H       
  80 H80            4.2208   -14.8121     7.0298 H       
  81 H81            5.8150   -15.0947     6.2901 H       
  82 H82            6.5463   -12.9868     9.1869 H       
  83 H83            8.4151   -14.7446    11.6637 H       
  84 H84            7.4897   -13.2284    11.5486 H       
  85 H85            5.1388   -14.8731    14.7838 H       
  86 H86            6.4700   -16.9015    14.8044 H       
  87 H87            7.6943   -16.1680    15.8375 H       
  88 H88            4.7535   -16.6220    16.5728 H       
  89 H89            6.1233   -17.6125    17.1356 H       
  90 H90            4.5257   -14.3032    17.3459 H       
  91 H91            8.3248   -14.1212    16.6679 H       
  92 H92            8.0338   -12.8228    15.4856 H       
  93 H93            7.7320   -12.5349    17.2160 H       
  94 H94            5.4481   -11.7493    16.4953 H       
  95 H95            5.8519   -12.1682    14.8131 H       
  96 H96            4.3918   -12.8457    15.5731 H       
  97 H97            6.7796   -13.2871    19.1182 H       
  98 H98            5.5730   -12.2400    18.3556 H       
  99 H99            4.7938   -12.9229    20.5665 H       
 100 H100           3.7667   -13.5515    19.2596 H       
 101 H101           4.1313   -16.2219    18.6995 H       
 102 H102           5.5100   -18.1716    18.9405 H       
 103 H103           6.5993   -17.3859    20.0922 H       
 104 H104           4.6316   -18.8424    21.1207 H       
 105 H105           2.4974   -15.8220    19.5506 H       
 106 H106           1.6963   -15.5431    21.1155 H       
 107 H107           2.4254   -14.1798    20.2335 H       
 108 H108           4.7963   -14.5631    22.9496 H       
 109 H109           3.5030   -13.6323    22.2135 H       
 110 H110           2.9046   -14.6181    24.4168 H       
 111 H111           1.8166   -15.1376    23.1172 H       
 112 H112           1.9369   -17.3755    22.2063 H       
 113 H113           3.0323   -19.5406    21.9104 H       
 114 H114           4.2795   -19.1322    23.0970 H       
 115 H115           0.7934   -20.1757    22.5813 H       
 116 H116           0.2343   -19.9048    24.2494 H       
 117 H117           0.5619   -18.5170    23.1840 H       
 118 H118           3.7887   -20.9399    24.6091 H       
 119 H119           2.1119   -21.3297    25.0616 H       
 120 H120           2.6575   -21.5613    23.3833 H       
 121 H121           1.6862   -18.9940    25.9174 H       
 122 H122           3.4200   -18.7981    25.6524 H       
 123 H123           2.3745   -16.5942    25.8260 H       
 124 H124           1.1730   -17.0071    24.5917 H       
 125 H125           5.8703   -16.1864    25.7009 H       
 126 H126           6.1316   -14.3675    21.9782 H       
 127 H127           6.5157   -16.0247    21.4546 H       
 128 H128           7.1027   -14.6345    20.5106 H       
 129 H129           8.1326   -15.6195    17.4868 H       
 130 H130           7.7502   -14.8997    19.0692 H       
 131 H131           7.7130   -16.6673    18.8632 H       
@<TRIPOS>BOND
   1    1    2 1
   2    1   57 1
   3    1   58 1
   4    1   59 1
   5    2    3 1
   6    2   60 1
   7    2   61 1
   8    3    4 1
   9    3   62 1
  10    3   63 1
  11    4    5 1
  12    4   64 1
  13    4   65 1
  14    5    6 1
  15    5   66 1
  16    5   67 1
  17    6    7 1
  18    6   68 1
  19    6   69 1
  20    7    8 1
  21    7   70 1
  22    7   71 1
  23    8    9 1
  24    8   72 1
  25    8   73 1
  26    9   10 1
  27    9   74 1
  28    9   75 1
  29   10   11 1
  30   10   76 1
  31   10   77 1
  32   11   12 1
  33   11   78 1
  34   11   79 1
  35   12   13 2
  36   12   14 1
  37   14   15 1
  38   15   16 1
  39   15   80 1
  40   15   81 1
  41   16   17 1
  42   16   20 2
  43   17   18 2
  44   18   19 1
  45   19   20 1
  46   19   21 1
  47   20   82 1
  48   21   22 1
  49   21   83 1
  50   21   84 1
  51   22   23 2
  52   22   24 1
  53   24   25 1
  54   25   26 1
  55   25   30 1
  56   25   85 1
  57   26   27 1
  58   26   86 1
  59   26   87 1
  60   27   28 1
  61   27   88 1
  62   27   89 1
  63   28   29 1
  64   28   56 1
  65   28   36 1
  66   29   30 1
  67   29   33 1
  68   29   90 1
  69   30   31 1
  70   30   32 1
  71   31   91 1
  72   31   92 1
  73   31   93 1
  74   32   94 1
  75   32   95 1
  76   32   96 1
  77   33   34 1
  78   33   97 1
  79   33   98 1
  80   34   35 1
  81   34   99 1
  82   34  100 1
  83   35   40 1
  84   35   55 1
  85   35   36 1
  86   36   37 1
  87   36  101 1
  88   37   38 1
  89   37  102 1
  90   37  103 1
  91   38   39 2
  92   38  104 1
  93   39   40 1
  94   39   45 1
  95   40   41 1
  96   40   42 1
  97   41  105 1
  98   41  106 1
  99   41  107 1
 100   42   43 1
 101   42  108 1
 102   42  109 1
 103   43   44 1
 104   43  110 1
 105   43  111 1
 106   44   52 1
 107   44   45 1
 108   44   51 1
 109   45   46 1
 110   45  112 1
 111   46   47 1
 112   46  113 1
 113   46  114 1
 114   47   48 1
 115   47   49 1
 116   47   50 1
 117   48  115 1
 118   48  116 1
 119   48  117 1
 120   49  118 1
 121   49  119 1
 122   49  120 1
 123   50   51 1
 124   50  121 1
 125   50  122 1
 126   51  123 1
 127   51  124 1
 128   52   53 2
 129   52   54 1
 130   54  125 1
 131   55  126 1
 132   55  127 1
 133   55  128 1
 134   56  129 1
 135   56  130 1
 136   56  131 1

#	End of record

