#	Name: ASD01812382
#	Creating user name:	WinNT
#	Creation time:	15. 06. 2019 19:28

#	Modifying user name:	WinNT
#	Modification time:	15. 06. 2019 19:28

#	Program:	/corina/corina34_cracker 3.40 0067  02.08.2006

@<TRIPOS>MOLECULE
ASD01812382
  53   56    0    0    0
SMALL
NO_CHARGES


@<TRIPOS>ATOM
   1 C1             8.8236     5.7474     3.0990 C.ar    
   2 C2             8.7382     6.4303     4.2989 C.ar    
   3 C3             7.5052     6.8403     4.7788 C.ar    
   4 C4             6.3643     6.5685     4.0612 C.ar    
   5 C5             6.4372     5.8801     2.8482 C.ar    
   6 C6             7.6846     5.4699     2.3718 C.ar    
   7 C7             4.9027     6.8657     4.2923 C.3     
   8 C8             4.1795     6.2811     3.1014 C.2     
   9 C9             5.0759     5.7300     2.3018 C.2     
  10 C10            4.7497     5.0397     1.0025 C.3     
  11 C11            4.9043     6.0296    -0.1538 C.3     
  12 C12            4.5781     5.3392    -1.4531 C.2     
  13 O13            4.3426     4.1495    -1.4652 O.2     
  14 N14            4.5481     6.0439    -2.6015 N.am    
  15 C15            4.3457     5.4081    -3.9130 C.3     
  16 C16            4.7082     7.4983    -2.6351 C.3     
  17 C17            5.3522     7.9156    -3.9735 C.3     
  18 S18            4.4999     6.7739    -5.1316 S.3     
  19 C19            5.4215     4.3491    -4.1622 C.3     
  20 C20            5.0261     9.3574    -4.3174 C.3     
  21 C21            5.7815    10.2904    -3.3642 C.3     
  22 N22            7.2219    10.0187    -3.4559 N.3     
  23 C23            7.5367     8.6482    -3.0319 C.3     
  24 C24            6.8471     7.6538    -3.9727 C.3     
  25 C25            7.9930    10.9998    -2.6807 C.3     
  26 H26            9.7878     5.4336     2.7273 H       
  27 H27            9.6343     6.6439     4.8626 H       
  28 H28            7.4401     7.3728     5.7161 H       
  29 H29            7.7573     4.9367     1.4355 H       
  30 H30            4.5617     6.3896     5.2116 H       
  31 H31            4.7398     7.9423     4.3413 H       
  32 H32            3.1131     6.3086     2.9328 H       
  33 H33            5.4300     4.2008     0.8561 H       
  34 H34            3.7233     4.6741     1.0331 H       
  35 H35            4.2239     6.8685    -0.0073 H       
  36 H36            5.9307     6.3952    -0.1843 H       
  37 H37            3.3537     4.9597    -3.9676 H       
  38 H38            3.7321     7.9736    -2.5379 H       
  39 H39            5.3481     7.8125    -1.8106 H       
  40 H40            5.4258     3.6348    -3.3389 H       
  41 H41            5.2082     3.8270    -5.0950 H       
  42 H42            6.3968     4.8309    -4.2304 H       
  43 H43            5.3287     9.5637    -5.3440 H       
  44 H44            3.9537     9.5224    -4.2138 H       
  45 H45            5.5886    11.3268    -3.6411 H       
  46 H46            5.4433    10.1178    -2.3425 H       
  47 H47            8.6153     8.4951    -3.0682 H       
  48 H48            7.1810     8.4919    -2.0135 H       
  49 H49            7.0379     6.6368    -3.6301 H       
  50 H50            7.2384     7.7772    -4.9825 H       
  51 H51            7.6941    10.9514    -1.6336 H       
  52 H52            9.0562    10.7754    -2.7659 H       
  53 H53            7.8007    12.0006    -3.0676 H       
@<TRIPOS>BOND
   1    1    2 ar
   2    1    6 ar
   3    1   26 1
   4    2    3 ar
   5    2   27 1
   6    3    4 ar
   7    3   28 1
   8    4    5 ar
   9    4    7 1
  10    5    6 ar
  11    5    9 1
  12    6   29 1
  13    7    8 1
  14    7   30 1
  15    7   31 1
  16    8    9 2
  17    8   32 1
  18    9   10 1
  19   10   11 1
  20   10   33 1
  21   10   34 1
  22   11   12 1
  23   11   35 1
  24   11   36 1
  25   12   13 2
  26   12   14 am
  27   14   15 1
  28   14   16 1
  29   15   19 1
  30   15   18 1
  31   15   37 1
  32   16   17 1
  33   16   38 1
  34   16   39 1
  35   17   18 1
  36   17   20 1
  37   17   24 1
  38   19   40 1
  39   19   41 1
  40   19   42 1
  41   20   21 1
  42   20   43 1
  43   20   44 1
  44   21   22 1
  45   21   45 1
  46   21   46 1
  47   22   23 1
  48   22   25 1
  49   23   24 1
  50   23   47 1
  51   23   48 1
  52   24   49 1
  53   24   50 1
  54   25   51 1
  55   25   52 1
  56   25   53 1

#	End of record

