#	Name: ASD06300017
#	Creating user name:	WinNT
#	Creation time:	15. 06. 2019 21:05

#	Modifying user name:	WinNT
#	Modification time:	15. 06. 2019 21:05

#	Program:	/corina/corina34_cracker 3.40 0067  02.08.2006

@<TRIPOS>MOLECULE
ASD06300017
 173  177    0    0    0
SMALL
NO_CHARGES


@<TRIPOS>ATOM
   1 N1            -3.6405     2.8554    -6.3237 N.am    
   2 C2             0.6758   -13.8973     3.4302 C.3     
   3 C3             0.3648   -13.0847     4.6887 C.3     
   4 C4            -0.6299   -12.0029     4.3551 C.2     
   5 N5            -0.1989   -13.9674     5.7131 N.am    
   6 O6            -1.7040   -11.9723     4.9175 O.2     
   7 C7             2.6877   -18.0976     8.7030 C.3     
   8 C8             1.6491   -17.3792     7.8806 C.2     
   9 N9             2.8808   -19.4536     8.1721 N.3     
  10 O10            1.2839   -17.8464     6.8227 O.2     
  11 C11            5.8850   -18.9181     9.1178 C.ar    
  12 C12            6.7959   -19.4945     9.9832 C.ar    
  13 C13            6.8246   -19.1126    11.3115 C.ar    
  14 C14            5.9427   -18.1539    11.7742 C.ar    
  15 C15            5.0315   -17.5778    10.9089 C.ar    
  16 C16            5.0028   -17.9597     9.5807 C.ar    
  17 C17            4.0102   -17.3310     8.6371 C.3     
  18 C18           -0.8216   -14.7550     8.5401 C.3     
  19 C19            0.0393   -15.5755     7.5775 C.3     
  20 C20            0.6191   -14.6674     6.5238 C.2     
  21 N21            1.1262   -16.2176     8.3207 N.am    
  22 O22            1.8219   -14.5666     6.4053 O.2     
  23 C23           -1.5070   -15.6793     9.5133 C.2     
  24 O24           -1.2633   -16.8626     9.4966 O.2     
  25 O25           -2.3881   -15.1879    10.3987 O.3     
  26 C26            2.7818   -20.5543     6.0317 C.3     
  27 C27            1.2807   -20.5822     6.1614 C.2     
  28 N28            3.3174   -19.4131     6.7858 N.3     
  29 O29            0.7486   -20.0875     7.1264 O.2     
  30 C30            5.7404   -21.5027     7.3001 C.ar    
  31 C31            7.0999   -21.5406     7.0526 C.ar    
  32 C32            7.5672   -21.9704     5.8247 C.ar    
  33 C33            6.6750   -22.3628     4.8444 C.ar    
  34 C34            5.3155   -22.3244     5.0917 C.ar    
  35 C35            4.8482   -21.8946     6.3196 C.ar    
  36 C36            3.3661   -21.8537     6.5895 C.3     
  37 C37           -1.2930   -10.0179     3.1072 C.3     
  38 C38           -1.0332    -9.5094     1.7126 C.2     
  39 N39           -0.3260   -11.0695     3.4316 N.am    
  40 O40           -0.1293    -9.9791     1.0544 O.2     
  41 C41           -0.5650    -9.8832     6.3166 C.ar    
  42 C42           -0.9125   -10.3221     7.5805 C.ar    
  43 C43           -2.2226   -10.2236     8.0104 C.ar    
  44 C44           -3.1851    -9.6858     7.1766 C.ar    
  45 C45           -2.8377    -9.2473     5.9125 C.ar    
  46 C46           -1.5276    -9.3458     5.4826 C.ar    
  47 C47           -1.1486    -8.8669     4.1049 C.3     
  48 C48           -2.3694    -9.0807    -1.1190 C.3     
  49 C49           -1.6247    -8.1144    -0.1956 C.3     
  50 C50           -2.1733    -6.7226    -0.3773 C.2     
  51 N51           -1.8054    -8.5325     1.1968 N.am    
  52 O52           -3.0040    -6.2926     0.3947 O.2     
  53 C53           -2.1042    -8.6994    -2.5768 C.3     
  54 C54           -0.6366    -8.9680    -2.9154 C.3     
  55 C55           -3.0002    -9.5348    -3.4935 C.3     
  56 C56           -1.1845    -3.6413    -0.8363 C.3     
  57 C57           -2.1954    -4.5679    -1.5149 C.3     
  58 C58           -2.3154    -4.1998    -2.9713 C.2     
  59 N59           -1.7409    -5.9557    -1.3978 N.am    
  60 O60           -1.9299    -4.9700    -3.8252 O.2     
  61 C61           -1.1543    -3.9320     0.6655 C.3     
  62 C62           -0.1587    -3.0193     1.3339 C.2     
  63 O63            0.4653    -2.2155     0.6741 O.2     
  64 N64            0.0384    -3.0964     2.6650 N.am    
  65 C65           -4.5487    -2.9496    -5.0842 C.3     
  66 C66           -3.0782    -2.7062    -4.7389 C.3     
  67 C67           -2.7333    -1.2626    -4.9998 C.2     
  68 N68           -2.8511    -3.0147    -3.3249 N.am    
  69 O69           -2.3367    -0.5606    -4.0939 O.2     
  70 C70           -4.8708    -4.4113    -4.9082 C.2     
  71 C71           -4.8151    -5.3609    -5.8553 C.2     
  72 N72           -5.1772    -6.5695    -5.3259 N.pl3   
  73 C73           -5.4825    -6.4233    -3.9912 C.ar    
  74 C74           -5.2979    -5.0664    -3.6696 C.ar    
  75 C75           -5.8984    -7.3080    -3.0013 C.ar    
  76 C76           -6.1297    -6.8462    -1.7243 C.ar    
  77 C77           -5.9521    -5.5048    -1.4134 C.ar    
  78 C78           -5.5307    -4.6214    -2.3667 C.ar    
  79 C79           -2.1598     0.8292    -7.9675 C.3     
  80 C80           -2.5300     0.6516    -6.4937 C.3     
  81 C81           -3.7180     1.5191    -6.1661 C.2     
  82 N82           -2.8654    -0.7517    -6.2400 N.am    
  83 O83           -4.7438     1.0148    -5.7608 O.2     
  84 C84           -0.8805     0.0463    -8.2699 C.3     
  85 C85           -0.5102     0.2238    -9.7437 C.3     
  86 C86            0.7691    -0.5591   -10.0461 C.3     
  87 N87            1.1246    -0.3886   -11.4612 N.3     
  88 O88            0.9869   -21.7132     4.1370 O.2     
  89 C89            0.4548   -21.2185     5.1019 C.2     
  90 C90           -1.0464   -21.2463     5.2317 C.3     
  91 H91           -2.8201     3.2587    -6.6479 H       
  92 H92           -4.4065     3.4134    -6.1167 H       
  93 H93            1.3953   -14.6797     3.6716 H       
  94 H94           -0.2415   -14.3506     3.0545 H       
  95 H95            1.0953   -13.2406     2.6681 H       
  96 H96            1.2821   -12.6314     5.0645 H       
  97 H97           -1.1609   -14.0480     5.8078 H       
  98 H98            2.3535   -18.1571     9.7388 H       
  99 H99            3.5306   -19.9754     8.7408 H       
 100 H100           5.8656   -19.2132     8.0791 H       
 101 H101           7.4849   -20.2435     9.6217 H       
 102 H102           7.5357   -19.5635    11.9877 H       
 103 H103           5.9647   -17.8560    12.8121 H       
 104 H104           4.3423   -16.8291    11.2705 H       
 105 H105           4.4014   -17.3681     7.6204 H       
 106 H106           3.8431   -16.2929     8.9244 H       
 107 H107          -0.1893   -14.0556     9.0870 H       
 108 H108          -1.5716   -14.2014     7.9751 H       
 109 H109          -0.5756   -16.3389     7.1008 H       
 110 H110           1.4696   -15.8068     9.1295 H       
 111 H111          -2.8022   -15.8194    11.0027 H       
 112 H112           3.0539   -20.4553     4.9808 H       
 113 H113           3.0602   -18.5397     6.3511 H       
 114 H114           5.3755   -21.1711     8.2609 H       
 115 H115           7.7969   -21.2340     7.8185 H       
 116 H116           8.6293   -21.9993     5.6311 H       
 117 H117           7.0401   -22.6979     3.8848 H       
 118 H118           4.6185   -22.6306     4.3257 H       
 119 H119           3.1912   -21.8987     7.6644 H       
 120 H120           2.8854   -22.7048     6.1072 H       
 121 H121          -2.3032   -10.4232     3.1639 H       
 122 H122           0.5330   -11.0940     2.9817 H       
 123 H123           0.4594    -9.9561     5.9824 H       
 124 H124          -0.1605   -10.7424     8.2319 H       
 125 H125          -2.4943   -10.5672     8.9976 H       
 126 H126          -4.2088    -9.6095     7.5123 H       
 127 H127          -3.5897    -8.8274     5.2610 H       
 128 H128          -0.1154    -8.5199     4.1123 H       
 129 H129          -1.8050    -8.0475     3.8118 H       
 130 H130          -2.0191   -10.0972    -0.9398 H       
 131 H131          -3.4391    -9.0242    -0.9175 H       
 132 H132          -0.5631    -8.1215    -0.4423 H       
 133 H133          -2.4807    -8.1064     1.7474 H       
 134 H134          -2.3227    -7.6413    -2.7212 H       
 135 H135          -0.3919   -10.0029    -2.6759 H       
 136 H136          -0.4708    -8.7921    -3.9782 H       
 137 H137          -0.0013    -8.3005    -2.3332 H       
 138 H138          -4.0410    -9.4135    -3.1932 H       
 139 H139          -2.8780    -9.2007    -4.5238 H       
 140 H140          -2.7200   -10.5853    -3.4165 H       
 141 H141          -0.1945    -3.8116    -1.2593 H       
 142 H142          -1.4759    -2.6038    -0.9998 H       
 143 H143          -3.1668    -4.4617    -1.0320 H       
 144 H144          -1.1289    -6.3227    -2.0548 H       
 145 H145          -2.1443    -3.7617     1.0886 H       
 146 H146          -0.8629    -4.9695     0.8290 H       
 147 H147          -0.4607    -3.7393     3.1927 H       
 148 H148           0.6792    -2.5089     3.0952 H       
 149 H149          -5.1803    -2.3562    -4.4230 H       
 150 H150          -4.7319    -2.6593    -6.1188 H       
 151 H151          -2.4491    -3.3475    -5.3563 H       
 152 H152          -3.0863    -2.3660    -2.6431 H       
 153 H153          -4.5276    -5.1954    -6.8831 H       
 154 H154          -5.2137    -7.4049    -5.8176 H       
 155 H155          -6.0397    -8.3533    -3.2333 H       
 156 H156          -6.4528    -7.5345    -0.9573 H       
 157 H157          -6.1382    -5.1590    -0.4073 H       
 158 H158          -5.3926    -3.5797    -2.1170 H       
 159 H159          -2.9705     0.4561    -8.5933 H       
 160 H160          -1.9966     1.8865    -8.1764 H       
 161 H161          -1.6850     0.9419    -5.8693 H       
 162 H162          -3.1825    -1.3132    -6.9646 H       
 163 H163          -0.0697     0.4193    -7.6441 H       
 164 H164          -1.0436    -1.0110    -8.0610 H       
 165 H165          -1.3210    -0.1493   -10.3695 H       
 166 H166          -0.3471     1.2811    -9.9526 H       
 167 H167           1.5798    -0.1860    -9.4203 H       
 168 H168           0.6059    -1.6164    -9.8373 H       
 169 H169           1.9669    -0.8966   -11.6861 H       
 170 H170           0.3630    -0.6675   -12.0615 H       
 171 H171          -1.4677   -20.3537     4.7692 H       
 172 H172          -1.4377   -22.1331     4.7331 H       
 173 H173          -1.3194   -21.2723     6.2866 H       
@<TRIPOS>BOND
   1    1   81 am
   2    1   91 1
   3    1   92 1
   4    2    3 1
   5    2   93 1
   6    2   94 1
   7    2   95 1
   8    3    4 1
   9    3    5 1
  10    3   96 1
  11    4    6 2
  12    4   39 am
  13    5   20 am
  14    5   97 1
  15    7    8 1
  16    7    9 1
  17    7   17 1
  18    7   98 1
  19    8   10 2
  20    8   21 am
  21    9   28 1
  22    9   99 1
  23   11   12 ar
  24   11   16 ar
  25   11  100 1
  26   12   13 ar
  27   12  101 1
  28   13   14 ar
  29   13  102 1
  30   14   15 ar
  31   14  103 1
  32   15   16 ar
  33   15  104 1
  34   16   17 1
  35   17  105 1
  36   17  106 1
  37   18   23 1
  38   18   19 1
  39   18  107 1
  40   18  108 1
  41   19   20 1
  42   19   21 1
  43   19  109 1
  44   20   22 2
  45   21  110 1
  46   23   24 2
  47   23   25 1
  48   25  111 1
  49   26   27 1
  50   26   28 1
  51   26   36 1
  52   26  112 1
  53   27   29 2
  54   27   89 1
  55   28  113 1
  56   30   31 ar
  57   30   35 ar
  58   30  114 1
  59   31   32 ar
  60   31  115 1
  61   32   33 ar
  62   32  116 1
  63   33   34 ar
  64   33  117 1
  65   34   35 ar
  66   34  118 1
  67   35   36 1
  68   36  119 1
  69   36  120 1
  70   37   38 1
  71   37   39 1
  72   37   47 1
  73   37  121 1
  74   38   40 2
  75   38   51 am
  76   39  122 1
  77   41   42 ar
  78   41   46 ar
  79   41  123 1
  80   42   43 ar
  81   42  124 1
  82   43   44 ar
  83   43  125 1
  84   44   45 ar
  85   44  126 1
  86   45   46 ar
  87   45  127 1
  88   46   47 1
  89   47  128 1
  90   47  129 1
  91   48   53 1
  92   48   49 1
  93   48  130 1
  94   48  131 1
  95   49   51 1
  96   49   50 1
  97   49  132 1
  98   50   52 2
  99   50   59 am
 100   51  133 1
 101   53   54 1
 102   53   55 1
 103   53  134 1
 104   54  135 1
 105   54  136 1
 106   54  137 1
 107   55  138 1
 108   55  139 1
 109   55  140 1
 110   56   61 1
 111   56   57 1
 112   56  141 1
 113   56  142 1
 114   57   59 1
 115   57   58 1
 116   57  143 1
 117   58   60 2
 118   58   68 am
 119   59  144 1
 120   61   62 1
 121   61  145 1
 122   61  146 1
 123   62   63 2
 124   62   64 am
 125   64  147 1
 126   64  148 1
 127   65   70 1
 128   65   66 1
 129   65  149 1
 130   65  150 1
 131   66   67 1
 132   66   68 1
 133   66  151 1
 134   67   69 2
 135   67   82 am
 136   68  152 1
 137   70   71 2
 138   70   74 1
 139   71   72 1
 140   71  153 1
 141   72   73 1
 142   72  154 1
 143   73   74 ar
 144   73   75 ar
 145   74   78 ar
 146   75   76 ar
 147   75  155 1
 148   76   77 ar
 149   76  156 1
 150   77   78 ar
 151   77  157 1
 152   78  158 1
 153   79   84 1
 154   79   80 1
 155   79  159 1
 156   79  160 1
 157   80   82 1
 158   80   81 1
 159   80  161 1
 160   81   83 2
 161   82  162 1
 162   84   85 1
 163   84  163 1
 164   84  164 1
 165   85   86 1
 166   85  165 1
 167   85  166 1
 168   86   87 1
 169   86  167 1
 170   86  168 1
 171   87  169 1
 172   87  170 1
 173   88   89 2
 174   89   90 1
 175   90  171 1
 176   90  172 1
 177   90  173 1

#	End of record

