#	Name: ASD00510002
#	Creating user name:	WinNT
#	Creation time:	15. 06. 2019 18:36

#	Modifying user name:	WinNT
#	Modification time:	15. 06. 2019 18:36

#	Program:	/corina/corina34_cracker 3.40 0067  02.08.2006

@<TRIPOS>MOLECULE
ASD00510002
  35   38    0    0    0
SMALL
NO_CHARGES


@<TRIPOS>ATOM
   1 C1             0.0242     1.3198    -0.5660 C.ar    
   2 N2             0.0415    -0.0023    -0.5646 N.ar    
   3 C3             1.1483    -0.6973    -0.3993 C.ar    
   4 C4             2.3593    -0.0339    -0.2171 C.ar    
   5 C5             2.3739     1.3816    -0.2137 C.ar    
   6 C6             1.1646     2.0565    -0.3944 C.ar    
   7 C7             3.6353    -0.7285    -0.0258 C.ar    
   8 C8             4.8067     0.0459     0.1508 C.ar    
   9 N9             4.7590     1.3874     0.1450 N.ar    
  10 C10            3.6505     2.0708    -0.0223 C.ar    
  11 C11            3.7060    -2.1235    -0.0156 C.ar    
  12 C12            4.9037    -2.7475     0.1644 C.ar    
  13 C13            6.0763    -1.9980     0.3417 C.ar    
  14 C14            6.0324    -0.6112     0.3346 C.ar    
  15 C15            3.6921     3.5504    -0.0149 C.ar    
  16 C16            2.7305     4.2745     0.6908 C.ar    
  17 C17            2.7742     5.6531     0.6941 C.ar    
  18 C18            3.7699     6.3187    -0.0011 C.ar    
  19 C19            4.7266     5.6052    -0.7036 C.ar    
  20 C20            4.6965     4.2262    -0.7089 C.ar    
  21 Cl21           3.8187     8.0540     0.0075 Cl      
  22 C22            7.3668    -2.6900     0.5362 C.2     
  23 O23            8.3846    -2.0451     0.6900 O.2     
  24 O24            7.4148    -4.0363     0.5429 O.3     
  25 H25           -0.9153     1.8325    -0.7110 H       
  26 H26            1.1167    -1.7768    -0.4046 H       
  27 H27            1.1302     3.1360    -0.3983 H       
  28 H28            2.8086    -2.7090    -0.1506 H       
  29 H29            4.9506    -3.8265     0.1711 H       
  30 H30            6.9385    -0.0397     0.4717 H       
  31 H31            1.9533     3.7565     1.2330 H       
  32 H32            2.0302     6.2146     1.2397 H       
  33 H33            5.5005     6.1295    -1.2447 H       
  34 H34            5.4432     3.6708    -1.2568 H       
  35 H35            8.2819    -4.4440     0.6736 H       
@<TRIPOS>BOND
   1    1    2 ar
   2    1    6 ar
   3    1   25 1
   4    2    3 ar
   5    3    4 ar
   6    3   26 1
   7    4    5 ar
   8    4    7 ar
   9    5    6 ar
  10    5   10 ar
  11    6   27 1
  12    7    8 ar
  13    7   11 ar
  14    8    9 ar
  15    8   14 ar
  16    9   10 ar
  17   10   15 1
  18   11   12 ar
  19   11   28 1
  20   12   13 ar
  21   12   29 1
  22   13   14 ar
  23   13   22 1
  24   14   30 1
  25   15   16 ar
  26   15   20 ar
  27   16   17 ar
  28   16   31 1
  29   17   18 ar
  30   17   32 1
  31   18   19 ar
  32   18   21 1
  33   19   20 ar
  34   19   33 1
  35   20   34 1
  36   22   23 2
  37   22   24 1
  38   24   35 1

#	End of record

