#	Name: ASD00890015
#	Creating user name:	WinNT
#	Creation time:	15. 06. 2019 18:53

#	Modifying user name:	WinNT
#	Modification time:	15. 06. 2019 18:53

#	Program:	/corina/corina34_cracker 3.40 0067  02.08.2006

@<TRIPOS>MOLECULE
ASD00890015
  64   68    0    0    0
SMALL
NO_CHARGES


@<TRIPOS>ATOM
   1 C1            -0.3670     1.1469    -0.6552 C.ar    
   2 C2            -0.3985    -0.2462    -0.6302 C.ar    
   3 C3            -1.5326     1.8649    -0.4910 C.ar    
   4 C4            -1.6096    -0.9106    -0.4444 C.ar    
   5 C5            -2.7381     1.2004    -0.3001 C.ar    
   6 C6            -2.7735    -0.1887    -0.2858 C.ar    
   7 C7            -5.1439     1.4097     0.0589 C.2     
   8 C8            -7.4799     2.3638     0.4067 C.2     
   9 O9            -8.1511     3.3729     0.5000 O.2     
  10 C10            0.8555    -1.0211    -0.8016 C.2     
  11 C11            0.9596    -2.4156    -0.7963 C.2     
  12 C12            2.2946    -2.7364    -0.9862 C.2     
  13 C13            4.2405    -3.9567    -1.2527 C.2     
  14 C14            4.3359    -1.5733    -1.3012 C.2     
  15 O15           -3.6488     6.2022     1.0944 O.3     
  16 O16           -4.1176     6.1705    -1.3855 O.2     
  17 C17           -2.6197     7.1868     1.2103 C.3     
  18 C18           -7.1684    10.1259     0.2635 C.ar    
  19 C19           -6.1116    10.0373    -0.6228 C.ar    
  20 C20           -7.4974     9.0429     1.0575 C.ar    
  21 C21           -5.3876     8.8634    -0.7202 C.ar    
  22 C22           -6.7739     7.8693     0.9598 C.ar    
  23 C23           -5.7207     7.7786     0.0688 C.ar    
  24 C24           -7.1332     6.6885     1.8245 C.3     
  25 C25           -7.9582    11.4050     0.3689 C.3     
  26 P26           -4.7711     6.2383    -0.0594 P.3     
  27 N27           -5.7800     4.9577     0.1190 N.pl3   
  28 C28           -5.2759     3.6595     0.0579 C.2     
  29 C29           -6.0300     2.4632     0.1842 C.2     
  30 O30           -8.0648     1.1536     0.5073 O.3     
  31 N31           -4.0240     3.3267    -0.1361 N.2     
  32 N32           -3.9201     1.9314    -0.1327 N.pl3   
  33 N33            2.0581    -0.5084    -0.9902 N.2     
  34 N34            2.9806    -1.5544    -1.1035 N.pl3   
  35 N35            5.0420    -0.3955    -1.4214 N.pl3   
  36 C36            4.9781    -2.7795    -1.3780 C.2     
  37 C37            4.9379    -5.2901    -1.3357 C.3     
  38 N38            2.9401    -3.9100    -1.0635 N.2     
  39 H39            0.5703     1.6638    -0.7987 H       
  40 H40           -1.5086     2.9444    -0.5103 H       
  41 H41           -1.6363    -1.9901    -0.4250 H       
  42 H42           -3.7114    -0.7031    -0.1373 H       
  43 H43           -5.3894     0.3592     0.1103 H       
  44 H44            0.1473    -3.1156    -0.6673 H       
  45 H45           -2.0188     7.1931     0.3009 H       
  46 H46           -3.0707     8.1685     1.3546 H       
  47 H47           -1.9845     6.9498     2.0638 H       
  48 H48           -5.8518    10.8847    -1.2399 H       
  49 H49           -8.3204     9.1136     1.7532 H       
  50 H50           -4.5620     8.7941    -1.4130 H       
  51 H51           -7.8720     6.0734     1.3109 H       
  52 H52           -6.2394     6.0958     2.0197 H       
  53 H53           -7.5478     7.0422     2.7685 H       
  54 H54           -8.7892    11.3780    -0.3360 H       
  55 H55           -8.3449    11.5108     1.3825 H       
  56 H56           -7.3119    12.2513     0.1363 H       
  57 H57           -6.7274     5.1036     0.2670 H       
  58 H58           -9.0206     1.1387     0.6535 H       
  59 H59            6.0016    -0.4174    -1.5616 H       
  60 H60            4.5793     0.4552    -1.3659 H       
  61 H61            6.0461    -2.8194    -1.5337 H       
  62 H62            5.2552    -5.5968    -0.3391 H       
  63 H63            4.2531    -6.0335    -1.7439 H       
  64 H64            5.8097    -5.2043    -1.9843 H       
@<TRIPOS>BOND
   1    1    2 ar
   2    1   39 1
   3    1    3 ar
   4    2    4 ar
   5    2   10 1
   6    3    5 ar
   7    3   40 1
   8    4   41 1
   9    4    6 ar
  10    5    6 ar
  11    5   32 1
  12    6   42 1
  13    7   32 1
  14    7   43 1
  15    7   29 2
  16    8   29 1
  17    8    9 2
  18    8   30 1
  19   10   11 1
  20   10   33 2
  21   11   12 2
  22   11   44 1
  23   12   34 1
  24   12   38 1
  25   13   36 1
  26   13   37 1
  27   13   38 2
  28   14   35 1
  29   14   36 2
  30   14   34 1
  31   15   26 1
  32   15   17 1
  33   16   26 2
  34   17   45 1
  35   17   46 1
  36   17   47 1
  37   18   25 1
  38   18   19 ar
  39   18   20 ar
  40   19   48 1
  41   19   21 ar
  42   20   49 1
  43   20   22 ar
  44   21   50 1
  45   21   23 ar
  46   22   23 ar
  47   22   24 1
  48   23   26 1
  49   24   51 1
  50   24   52 1
  51   24   53 1
  52   25   54 1
  53   25   55 1
  54   25   56 1
  55   26   27 1
  56   27   57 1
  57   27   28 1
  58   28   31 2
  59   28   29 1
  60   30   58 1
  61   31   32 1
  62   33   34 1
  63   35   59 1
  64   35   60 1
  65   36   61 1
  66   37   62 1
  67   37   63 1
  68   37   64 1

#	End of record

