#	Name: ASD01901383
#	Creating user name:	WinNT
#	Creation time:	15. 06. 2019 19:53

#	Modifying user name:	WinNT
#	Modification time:	15. 06. 2019 19:53

#	Program:	/corina/corina34_cracker 3.40 0067  02.08.2006

@<TRIPOS>MOLECULE
ASD01901383
  40   43    0    0    0
SMALL
NO_CHARGES


@<TRIPOS>ATOM
   1 C1            -0.0168     1.3891     0.0097 C.ar    
   2 N2             1.1077     2.0749     0.0026 N.ar    
   3 C3             2.2854     1.4807    -0.0118 C.ar    
   4 C4             2.3879     0.1019    -0.0202 C.ar    
   5 C5             1.2339    -0.6631    -0.0133 C.ar    
   6 C6             0.0021    -0.0041     0.0020 C.ar    
   7 C7            -1.2659    -0.7755     0.0105 C.2     
   8 N8            -2.8250    -2.0985     1.1908 N.2     
   9 C9            -1.7050    -1.4181     1.1884 C.2     
  10 C10           -2.0277    -0.8691    -1.1205 C.2     
  11 N11           -3.1868    -1.5856    -1.0783 N.pl3   
  12 C12           -3.5763    -2.2002     0.0839 C.2     
  13 C13           -4.1424    -1.8583    -2.0199 C.2     
  14 C14           -5.0813    -2.6222    -1.4223 C.2     
  15 N15           -4.7238    -2.8207    -0.1500 N.2     
  16 C16           -6.3249    -3.1621    -2.0805 C.3     
  17 O17           -6.3626    -2.7408    -3.4454 O.3     
  18 C18           -7.4277    -3.1453    -4.1870 C.ar    
  19 C19           -8.4183    -3.9266    -3.6105 C.ar    
  20 C20           -7.5278    -2.7724    -5.5192 C.ar    
  21 C21           -8.6110    -3.1839    -6.2716 C.ar    
  22 C22           -9.5966    -3.9677    -5.6962 C.ar    
  23 C23           -9.5004    -4.3366    -4.3652 C.ar    
  24 F24          -10.6558    -4.3686    -6.4328 F       
  25 C25            1.3047    -2.1684    -0.0226 C.3     
  26 H26           -0.9620     1.9114     0.0260 H       
  27 H27            3.1835     2.0806    -0.0175 H       
  28 H28            3.3577    -0.3733    -0.0324 H       
  29 H29           -1.1155    -1.3490     2.0907 H       
  30 H30           -1.7165    -0.3828    -2.0331 H       
  31 H31           -4.1447    -1.5252    -3.0472 H       
  32 H32           -6.3156    -4.2512    -2.0365 H       
  33 H33           -7.2048    -2.7849    -1.5593 H       
  34 H34           -8.3435    -4.2145    -2.5723 H       
  35 H35           -6.7594    -2.1605    -5.9681 H       
  36 H36           -8.6891    -2.8937    -7.3089 H       
  37 H37          -10.2719    -4.9449    -3.9165 H       
  38 H38            1.3318    -2.5372     1.0028 H       
  39 H39            0.4278    -2.5703    -0.5302 H       
  40 H40            2.2057    -2.4866    -0.5471 H       
@<TRIPOS>BOND
   1    1    6 ar
   2    1    2 ar
   3    1   26 1
   4    2    3 ar
   5    3    4 ar
   6    3   27 1
   7    4    5 ar
   8    4   28 1
   9    5    6 ar
  10    5   25 1
  11    6    7 1
  12    7   10 2
  13    7    9 1
  14    8    9 2
  15    8   12 1
  16    9   29 1
  17   10   11 1
  18   10   30 1
  19   11   13 1
  20   11   12 1
  21   12   15 2
  22   13   14 2
  23   13   31 1
  24   14   15 1
  25   14   16 1
  26   16   17 1
  27   16   32 1
  28   16   33 1
  29   17   18 1
  30   18   20 ar
  31   18   19 ar
  32   19   23 ar
  33   19   34 1
  34   20   21 ar
  35   20   35 1
  36   21   22 ar
  37   21   36 1
  38   22   23 ar
  39   22   24 1
  40   23   37 1
  41   25   38 1
  42   25   39 1
  43   25   40 1

#	End of record

