#	Name: ASD01912604
#	Creating user name:	WinNT
#	Creation time:	15. 06. 2019 20:00

#	Modifying user name:	WinNT
#	Modification time:	15. 06. 2019 20:00

#	Program:	/corina/corina34_cracker 3.40 0067  02.08.2006

@<TRIPOS>MOLECULE
ASD01912604
  57   60    0    0    0
SMALL
NO_CHARGES


@<TRIPOS>ATOM
   1 C1            -0.0187     1.5258     0.0104 C.3     
   2 C2             0.0021    -0.0041     0.0020 C.3     
   3 C3             1.3951     2.0474    -0.0003 C.2     
   4 N4             2.1174     2.4057     1.0830 N.pl3   
   5 C5             2.1649     2.2333    -1.0947 C.2     
   6 C6             3.4107     2.7314    -0.6667 C.2     
   7 N7             3.3773     2.8335     0.6451 N.2     
   8 C8             4.5601     3.0764    -1.5404 C.ar    
   9 C9             4.4264     3.0143    -2.9270 C.ar    
  10 C10            5.7698     3.4673    -0.9773 C.ar    
  11 C11            6.8453     3.7899    -1.8045 C.ar    
  12 C12            6.7004     3.7182    -3.1918 C.ar    
  13 C13            5.4941     3.3347    -3.7427 C.ar    
  14 C14            1.6622     2.3560     2.4746 C.3     
  15 C15            1.9961     1.0101     3.0646 C.2     
  16 N16            1.6693     0.7349     4.3429 N.am    
  17 O17            2.5588     0.1746     2.3892 O.2     
  18 C18            1.9858    -0.5722     4.9383 C.3     
  19 C19            2.7188    -0.3387     6.2636 C.3     
  20 N20            1.9171     0.5528     7.1124 N.3     
  21 C21            1.7589     1.8764     6.4952 C.3     
  22 C22            0.9920     1.7358     5.1812 C.3     
  23 C23            2.4671     0.6586     8.3807 C.ar    
  24 N24            1.8708     1.4257     9.2806 N.ar    
  25 C25            2.3673     1.5498    10.5006 C.ar    
  26 C26            3.5293     0.8622    10.8316 C.ar    
  27 C27            4.1273     0.0666     9.8611 C.ar    
  28 N28            3.5722    -0.0144     8.6629 N.ar    
  29 C29            8.0947     4.1940    -1.2331 C.1     
  30 N30            9.0858     4.5145    -0.7798 N.1     
  31 O31            4.0690     0.9660    12.0759 O.3     
  32 C32            5.2643     0.2248    12.3285 C.3     
  33 H33           -0.5459     1.8868    -0.8726 H       
  34 H34           -0.5289     1.8773     0.9072 H       
  35 H35            0.5123    -0.3556    -0.8948 H       
  36 H36            0.5293    -0.3651     0.8851 H       
  37 H37           -1.0205    -0.3814     0.0098 H       
  38 H38            1.8763     2.0348    -2.1163 H       
  39 H39            3.4855     2.7146    -3.3644 H       
  40 H40            5.8760     3.5213     0.0961 H       
  41 H41            7.5316     3.9678    -3.8345 H       
  42 H42            5.3860     3.2805    -4.8159 H       
  43 H43            2.1605     3.1378     3.0480 H       
  44 H44            0.5839     2.5109     2.5099 H       
  45 H45            1.0638    -1.1238     5.1221 H       
  46 H46            2.6254    -1.1379     4.2609 H       
  47 H47            2.8636    -1.2919     6.7720 H       
  48 H48            3.6878     0.1202     6.0674 H       
  49 H49            1.2075     2.5296     7.1715 H       
  50 H50            2.7413     2.3044     6.2957 H       
  51 H51            0.9720     2.6954     4.6645 H       
  52 H52           -0.0264     1.4052     5.3852 H       
  53 H53            1.8764     2.1773    11.2298 H       
  54 H54            5.0309    -0.4815    10.0835 H       
  55 H55            5.5878     0.3959    13.3553 H       
  56 H56            5.0710    -0.8377    12.1808 H       
  57 H57            6.0458     0.5507    11.6423 H       
@<TRIPOS>BOND
   1    1    2 1
   2    1    3 1
   3    1   33 1
   4    1   34 1
   5    2   35 1
   6    2   36 1
   7    2   37 1
   8    3    4 1
   9    3    5 2
  10    4   14 1
  11    4    7 1
  12    5    6 1
  13    5   38 1
  14    6    7 2
  15    6    8 1
  16    8    9 ar
  17    8   10 ar
  18    9   13 ar
  19    9   39 1
  20   10   11 ar
  21   10   40 1
  22   11   12 ar
  23   11   29 1
  24   12   13 ar
  25   12   41 1
  26   13   42 1
  27   14   15 1
  28   14   43 1
  29   14   44 1
  30   15   16 am
  31   15   17 2
  32   16   18 1
  33   16   22 1
  34   18   19 1
  35   18   45 1
  36   18   46 1
  37   19   20 1
  38   19   47 1
  39   19   48 1
  40   20   21 1
  41   20   23 1
  42   21   22 1
  43   21   49 1
  44   21   50 1
  45   22   51 1
  46   22   52 1
  47   23   24 ar
  48   23   28 ar
  49   24   25 ar
  50   25   26 ar
  51   25   53 1
  52   26   27 ar
  53   26   31 1
  54   27   28 ar
  55   27   54 1
  56   29   30 3
  57   31   32 1
  58   32   55 1
  59   32   56 1
  60   32   57 1

#	End of record

