#	Name: ASD03331106
#	Creating user name:	WinNT
#	Creation time:	15. 06. 2019 20:38

#	Modifying user name:	WinNT
#	Modification time:	15. 06. 2019 20:38

#	Program:	/corina/corina34_cracker 3.40 0067  02.08.2006

@<TRIPOS>MOLECULE
ASD03331106
  61   64    0    0    0
SMALL
NO_CHARGES


@<TRIPOS>ATOM
   1 N1            -0.8738     1.7435    -0.4490 N.pl3   
   2 C2            -0.6928     0.4226    -0.1803 C.2     
   3 C3             0.6229    -0.2342     0.1464 C.3     
   4 N4             1.3237     0.5684     1.1609 N.3     
   5 C5             2.1594     1.5971     0.5389 C.3     
   6 C6             1.5208     2.1158    -0.7463 C.3     
   7 C7             0.1730     2.7690    -0.4286 C.3     
   8 C8            -2.1977     1.9267    -0.7244 C.2     
   9 N9            -2.8124     0.7723    -0.6131 N.2     
  10 C10           -1.9115    -0.1767    -0.2753 C.2     
  11 C11           -2.1971    -1.6048    -0.0508 C.2     
  12 O12           -1.2966    -2.3650     0.2499 O.2     
  13 N13           -3.4561    -2.0685    -0.1788 N.am    
  14 C14           -2.8337     3.2113    -1.0873 C.ar    
  15 C15           -3.7094     3.2783    -2.1748 C.ar    
  16 C16           -4.3005     4.4816    -2.5081 C.ar    
  17 C17           -4.0263     5.6191    -1.7663 C.ar    
  18 C18           -3.1584     5.5570    -0.6875 C.ar    
  19 C19           -2.5667     4.3601    -0.3419 C.ar    
  20 F20           -4.6069     6.7936    -2.0961 F       
  21 F21           -3.9765     2.1691    -2.8985 F       
  22 C22           -4.9821    -3.8776    -0.7149 C.2     
  23 C23           -3.7399    -3.4883     0.0444 C.3     
  24 C24           -3.9568    -3.7363     1.5385 C.3     
  25 C25           -4.3870    -5.1882     1.7573 C.3     
  26 O26           -5.8606    -3.0621    -0.8994 O.2     
  27 C27           -2.6530    -3.4713     2.2940 C.3     
  28 C28           -5.0473    -2.7974     2.0583 C.3     
  29 N29           -5.1167    -5.1320    -1.1889 N.am    
  30 C30           -6.1693    -5.8985    -1.8726 C.3     
  31 C31           -5.5640    -7.1704    -1.2628 C.3     
  32 C32           -4.2732    -6.3349    -1.2560 C.3     
  33 F33           -6.0544    -7.4864     0.0088 F       
  34 F34           -5.5312    -8.2647    -2.1338 F       
  35 H35            0.4432    -1.2365     0.5351 H       
  36 H36            1.2331    -0.2957    -0.7547 H       
  37 H37            0.6709     0.9779     1.8122 H       
  38 H38            2.2855     2.4257     1.2358 H       
  39 H39            3.1365     1.1731     0.3074 H       
  40 H40            2.1801     2.8511    -1.2075 H       
  41 H41            1.3675     1.2854    -1.4355 H       
  42 H42           -0.0482     3.5305    -1.1764 H       
  43 H43            0.2143     3.2279     0.5592 H       
  44 H44           -4.1742    -1.4621    -0.4186 H       
  45 H45           -4.9771     4.5357    -3.3482 H       
  46 H46           -2.9483     6.4473    -0.1133 H       
  47 H47           -1.8945     4.3129     0.5020 H       
  48 H48           -2.8982    -4.0863    -0.3048 H       
  49 H49           -3.5979    -5.8567     1.4129 H       
  50 H50           -4.5688    -5.3572     2.8187 H       
  51 H51           -5.3005    -5.3849     1.1963 H       
  52 H52           -2.3465    -2.4369     2.1381 H       
  53 H53           -2.8075    -3.6480     3.3584 H       
  54 H54           -1.8761    -4.1401     1.9237 H       
  55 H55           -5.9762    -2.9862     1.5201 H       
  56 H56           -5.2018    -2.9741     3.1228 H       
  57 H57           -4.7409    -1.7631     1.9025 H       
  58 H58           -7.1728    -5.6777    -1.5087 H       
  59 H59           -6.0969    -5.8613    -2.9595 H       
  60 H60           -3.7009    -6.4128    -2.1804 H       
  61 H61           -3.6612    -6.4861    -0.3668 H       
@<TRIPOS>BOND
   1    1    2 1
   2    1    7 1
   3    1    8 1
   4    2    3 1
   5    2   10 2
   6    3    4 1
   7    3   35 1
   8    3   36 1
   9    4    5 1
  10    4   37 1
  11    5    6 1
  12    5   38 1
  13    5   39 1
  14    6    7 1
  15    6   40 1
  16    6   41 1
  17    7   42 1
  18    7   43 1
  19    8    9 2
  20    8   14 1
  21    9   10 1
  22   10   11 1
  23   11   12 2
  24   11   13 am
  25   13   23 1
  26   13   44 1
  27   14   15 ar
  28   14   19 ar
  29   15   16 ar
  30   15   21 1
  31   16   17 ar
  32   16   45 1
  33   17   18 ar
  34   17   20 1
  35   18   19 ar
  36   18   46 1
  37   19   47 1
  38   22   26 2
  39   22   29 am
  40   22   23 1
  41   23   24 1
  42   23   48 1
  43   24   25 1
  44   24   27 1
  45   24   28 1
  46   25   49 1
  47   25   50 1
  48   25   51 1
  49   27   52 1
  50   27   53 1
  51   27   54 1
  52   28   55 1
  53   28   56 1
  54   28   57 1
  55   29   30 1
  56   29   32 1
  57   30   31 1
  58   30   58 1
  59   30   59 1
  60   31   32 1
  61   31   33 1
  62   31   34 1
  63   32   60 1
  64   32   61 1

#	End of record

