#	Name: ASD01230165
#	Creating user name:	WinNT
#	Creation time:	15. 06. 2019 19:11

#	Modifying user name:	WinNT
#	Modification time:	15. 06. 2019 19:11

#	Program:	/corina/corina34_cracker 3.40 0067  02.08.2006

@<TRIPOS>MOLECULE
ASD01230165
  49   51    0    0    0
SMALL
NO_CHARGES


@<TRIPOS>ATOM
   1 S1             3.5974    -5.0333     1.0949 S.o2    
   2 N2             2.2679    -4.0774     0.8576 N.am    
   3 C3             2.3450    -2.9027     0.2870 C.2     
   4 N4             3.4911    -2.3178    -0.1767 N.pl3   
   5 C5             4.8247    -2.9092    -0.0381 C.3     
   6 C6             4.7546    -4.4328    -0.1760 C.3     
   7 C7             1.0678    -2.1672     0.1435 C.2     
   8 C8             1.0707    -0.9323    -0.4875 C.2     
   9 C9             2.2785    -0.4211    -0.9648 C.2     
  10 C10            3.4294    -1.1057    -0.8071 C.2     
  11 C11           -0.1826    -2.7370     0.6608 C.2     
  12 O12           -0.1936    -3.8639     1.1201 O.2     
  13 N13           -1.3182    -2.0120     0.6271 N.am    
  14 C14           -2.5298    -2.5918     1.0166 C.ar    
  15 C15           -3.5027    -1.8198     1.6384 C.ar    
  16 C16           -4.6980    -2.3955     2.0217 C.ar    
  17 C17           -4.9267    -3.7390     1.7876 C.ar    
  18 C18           -3.9601    -4.5104     1.1687 C.ar    
  19 C19           -2.7650    -3.9396     0.7773 C.ar    
  20 C20           -6.2319    -4.3640     2.2082 C.3     
  21 C21           -6.9437    -4.9340     0.9797 C.3     
  22 C22           -8.3229    -5.4568     1.3862 C.3     
  23 C23           -5.9595    -5.4898     3.2078 C.3     
  24 C24            2.2967     0.9132    -1.6650 C.3     
  25 O25            4.0557    -4.6919     2.3960 O.2     
  26 O26            3.1517    -6.3478     0.7905 O.2     
  27 H27            5.4782    -2.5077    -0.8126 H       
  28 H28            5.2305    -2.6551     0.9411 H       
  29 H29            5.7416    -4.8662    -0.0143 H       
  30 H30            4.3886    -4.6997    -1.1675 H       
  31 H31            0.1532    -0.3753    -0.6078 H       
  32 H32            4.3421    -0.6783    -1.1954 H       
  33 H33           -1.2952    -1.0881     0.3327 H       
  34 H34           -3.3244    -0.7706     1.8221 H       
  35 H35           -5.4550    -1.7957     2.5053 H       
  36 H36           -4.1417    -5.5596     0.9876 H       
  37 H37           -2.0124    -4.5415     0.2900 H       
  38 H38           -6.8628    -3.6080     2.6755 H       
  39 H39           -7.0584    -4.1509     0.2303 H       
  40 H40           -6.3535    -5.7508     0.5642 H       
  41 H41           -8.8300    -5.8629     0.5110 H       
  42 H42           -8.2082    -6.2400     2.1356 H       
  43 H43           -8.9131    -4.6400     1.8017 H       
  44 H44           -6.9035    -5.9419     3.5121 H       
  45 H45           -5.3285    -6.2459     2.7405 H       
  46 H46           -5.4524    -5.0838     4.0831 H       
  47 H47            1.2855     1.3185    -1.7008 H       
  48 H48            2.9446     1.6003    -1.1208 H       
  49 H49            2.6732     0.7858    -2.6800 H       
@<TRIPOS>BOND
   1    1    2 am
   2    1    6 1
   3    1   25 2
   4    1   26 2
   5    2    3 2
   6    3    4 1
   7    3    7 1
   8    4    5 1
   9    4   10 1
  10    5    6 1
  11    5   27 1
  12    5   28 1
  13    6   29 1
  14    6   30 1
  15    7    8 2
  16    7   11 1
  17    8    9 1
  18    8   31 1
  19    9   10 2
  20    9   24 1
  21   10   32 1
  22   11   12 2
  23   11   13 am
  24   13   14 1
  25   13   33 1
  26   14   15 ar
  27   14   19 ar
  28   15   16 ar
  29   15   34 1
  30   16   17 ar
  31   16   35 1
  32   17   18 ar
  33   17   20 1
  34   18   19 ar
  35   18   36 1
  36   19   37 1
  37   20   21 1
  38   20   23 1
  39   20   38 1
  40   21   22 1
  41   21   39 1
  42   21   40 1
  43   22   41 1
  44   22   42 1
  45   22   43 1
  46   23   44 1
  47   23   45 1
  48   23   46 1
  49   24   47 1
  50   24   48 1
  51   24   49 1

#	End of record

