#	Name: ASD01140048
#	Creating user name:	WinNT
#	Creation time:	15. 06. 2019 18:59

#	Modifying user name:	WinNT
#	Modification time:	15. 06. 2019 18:59

#	Program:	/corina/corina34_cracker 3.40 0067  02.08.2006

@<TRIPOS>MOLECULE
ASD01140048
  58   61    0    0    0
SMALL
NO_CHARGES


@<TRIPOS>ATOM
   1 C1            -0.2623     2.0881     0.0840 C.3     
   2 C2            -0.1211     0.5740     0.2517 C.3     
   3 C3             0.7130     0.0083    -0.8993 C.3     
   4 C4             2.0999     0.6553    -0.8918 C.3     
   5 C5             1.9539     2.1693    -1.0646 C.3     
   6 C6             1.1248     2.7340     0.0914 C.3     
   7 C7             2.9306     0.0894    -2.0457 C.3     
   8 C8             2.2282     0.3852    -3.3726 C.3     
   9 C9             2.0829     1.8976    -3.5463 C.3     
  10 C10            1.2454     2.4609    -2.3879 C.3     
  11 C11            1.3400     2.2123    -4.8312 C.3     
  12 C12            1.3130     3.7583    -4.9729 C.3     
  13 C13            0.3862     4.2967    -3.9008 C.3     
  14 C14            1.0173     3.9608    -2.5390 C.3     
  15 C15            2.0399     1.7941    -6.1286 C.3     
  16 C16            1.3943     2.7283    -7.1882 C.3     
  17 C17            0.8776     3.9698    -6.4192 C.3     
  18 O18            0.5268     0.2907     1.4934 O.3     
  19 H19            2.5957     0.4430     0.0554 H       
  20 C20            3.3387     2.8198    -1.0664 C.3     
  21 C21            2.7211     4.3210    -4.7694 C.3     
  22 C22            1.5012     5.2245    -6.9740 C.2     
  23 O23            2.5728     5.1720    -7.5283 O.2     
  24 C24            0.7874     6.5447    -6.8373 C.3     
  25 H25            0.2738     1.9668    -2.3832 H       
  26 H26            0.3306     1.8025    -4.7953 H       
  27 H27            3.0680     2.3641    -3.5494 H       
  28 O28            1.5740     7.5758    -7.4374 O.3     
  29 H29           -0.7586     2.3042    -0.8621 H       
  30 H30           -0.8550     2.4909     0.9053 H       
  31 H31           -1.1093     0.1140     0.2444 H       
  32 H32            0.8147    -1.0701    -0.7783 H       
  33 H33            0.2175     0.2223    -1.8463 H       
  34 H34            1.0242     3.8130    -0.0264 H       
  35 H35            1.6225     2.5159     1.0363 H       
  36 H36            3.9168     0.5536    -2.0452 H       
  37 H37            3.0362    -0.9885    -1.9229 H       
  38 H38            2.8187    -0.0198    -4.1944 H       
  39 H39            1.2411    -0.0770    -3.3721 H       
  40 H40            0.2852     5.3769    -4.0063 H       
  41 H41           -0.5916     3.8222    -3.9834 H       
  42 H42            0.3541     4.3027    -1.7444 H       
  43 H43            1.9730     4.4776    -2.4515 H       
  44 H44            3.1135     1.9705    -6.0619 H       
  45 H45            1.8333     0.7489    -6.3588 H       
  46 H46            2.1386     3.0281    -7.9259 H       
  47 H47            0.5642     2.2200    -7.6790 H       
  48 H48           -0.2091     4.0276    -6.4819 H       
  49 H49            0.0525     0.6207     2.2688 H       
  50 H50            3.9287     2.4160    -1.8891 H       
  51 H51            3.2336     3.8978    -1.1894 H       
  52 H52            3.8403     2.6091    -0.1219 H       
  53 H53            3.3951     3.8900    -5.5098 H       
  54 H54            2.6996     5.4046    -4.8849 H       
  55 H55            3.0719     4.0691    -3.7686 H       
  56 H56           -0.1798     6.4883    -7.3367 H       
  57 H57            0.6385     6.7695    -5.7811 H       
  58 H58            1.1748     8.4551    -7.3864 H       
@<TRIPOS>BOND
   1    1    2 1
   2    1    6 1
   3    1   29 1
   4    1   30 1
   5    2    3 1
   6    2   18 1
   7    2   31 1
   8    3    4 1
   9    3   32 1
  10    3   33 1
  11    4    5 1
  12    4    7 1
  13    4   19 1
  14    5    6 1
  15    5   10 1
  16    5   20 1
  17    6   34 1
  18    6   35 1
  19    7    8 1
  20    7   36 1
  21    7   37 1
  22    8    9 1
  23    8   38 1
  24    8   39 1
  25    9   10 1
  26    9   27 1
  27    9   11 1
  28   10   25 1
  29   10   14 1
  30   11   15 1
  31   11   26 1
  32   11   12 1
  33   12   13 1
  34   12   21 1
  35   12   17 1
  36   13   14 1
  37   13   40 1
  38   13   41 1
  39   14   42 1
  40   14   43 1
  41   15   16 1
  42   15   44 1
  43   15   45 1
  44   16   17 1
  45   16   46 1
  46   16   47 1
  47   17   22 1
  48   17   48 1
  49   18   49 1
  50   20   50 1
  51   20   51 1
  52   20   52 1
  53   21   53 1
  54   21   54 1
  55   21   55 1
  56   22   23 2
  57   22   24 1
  58   24   28 1
  59   24   56 1
  60   24   57 1
  61   28   58 1

#	End of record

