#	Name: ASD01913899
#	Creating user name:	WinNT
#	Creation time:	15. 06. 2019 20:02

#	Modifying user name:	WinNT
#	Modification time:	15. 06. 2019 20:02

#	Program:	/corina/corina34_cracker 3.40 0067  02.08.2006

@<TRIPOS>MOLECULE
ASD01913899
  41   43    0    0    0
SMALL
NO_CHARGES


@<TRIPOS>ATOM
   1 C1            -0.0173     1.4278     0.0099 C.ar    
   2 C2             0.0021    -0.0041     0.0020 C.1     
   3 C3             0.0180    -1.1779    -0.0044 C.1     
   4 C4             0.0374    -2.6098    -0.0123 C.ar    
   5 C5            -1.1552    -3.3455    -0.0049 C.ar    
   6 C6             0.0738    -5.2913    -0.0270 C.ar    
   7 N7             1.2234    -4.6330    -0.0401 N.ar    
   8 C8             1.2495    -3.3127    -0.0335 C.ar    
   9 N9            -1.0934    -4.6646    -0.0125 N.ar    
  10 C10            1.1816     2.1458     0.0023 C.ar    
  11 C11            1.1563     3.5243     0.0100 C.ar    
  12 C12           -1.2354     2.1129     0.0194 C.ar    
  13 C13           -0.0549     4.1980     0.0252 C.ar    
  14 C14           -1.2475     3.4916     0.0270 C.ar    
  15 N15            0.0926    -6.6794    -0.0350 N.am    
  16 C16            1.1946    -7.4405    -0.0549 C.2     
  17 N17            0.9455    -8.7567    -0.0588 N.am    
  18 C18           -0.5088    -8.9732    -0.0394 C.3     
  19 C19           -1.0940    -7.5477    -0.0167 C.3     
  20 O20            2.3191    -6.9787    -0.0687 O.2     
  21 C21           -0.9569    -9.7234    -1.2953 C.3     
  22 C22           -0.9212    -9.7375     1.2202 C.3     
  23 C23            1.9608    -9.8127    -0.0791 C.3     
  24 F24           -0.0732     5.5488     0.0331 F       
  25 H25           -2.1103    -2.8414     0.0073 H       
  26 H26            2.1905    -2.7828    -0.0446 H       
  27 H27            2.1260     1.6219    -0.0092 H       
  28 H28            2.0822     4.0803     0.0045 H       
  29 H29           -2.1652     1.5636     0.0204 H       
  30 H30           -2.1881     4.0221     0.0385 H       
  31 H31           -1.6779    -7.3882     0.8898 H       
  32 H32           -1.7044    -7.3706    -0.9022 H       
  33 H33           -0.4758   -10.7010    -1.3257 H       
  34 H34           -2.0392    -9.8515    -1.2753 H       
  35 H35           -0.6750    -9.1521    -2.1798 H       
  36 H36           -0.6143    -9.1761     2.1027 H       
  37 H37           -2.0037    -9.8656     1.2294 H       
  38 H38           -0.4396   -10.7153     1.2259 H       
  39 H39            2.9533    -9.3623    -0.0902 H       
  40 H40            1.8545   -10.4360     0.8087 H       
  41 H41            1.8298   -10.4254    -0.9710 H       
@<TRIPOS>BOND
   1    1    2 1
   2    1   10 ar
   3    1   12 ar
   4    2    3 3
   5    3    4 1
   6    4    5 ar
   7    4    8 ar
   8    5    9 ar
   9    5   25 1
  10    6    7 ar
  11    6   15 1
  12    6    9 ar
  13    7    8 ar
  14    8   26 1
  15   10   11 ar
  16   10   27 1
  17   11   13 ar
  18   11   28 1
  19   12   14 ar
  20   12   29 1
  21   13   14 ar
  22   13   24 1
  23   14   30 1
  24   15   16 am
  25   15   19 1
  26   16   17 am
  27   16   20 2
  28   17   18 1
  29   17   23 1
  30   18   19 1
  31   18   21 1
  32   18   22 1
  33   19   31 1
  34   19   32 1
  35   21   33 1
  36   21   34 1
  37   21   35 1
  38   22   36 1
  39   22   37 1
  40   22   38 1
  41   23   39 1
  42   23   40 1
  43   23   41 1

#	End of record

