#	Name: ASD03430952
#	Creating user name:	WinNT
#	Creation time:	15. 06. 2019 20:41

#	Modifying user name:	WinNT
#	Modification time:	15. 06. 2019 20:41

#	Program:	/corina/corina34_cracker 3.40 0067  02.08.2006

@<TRIPOS>MOLECULE
ASD03430952
  46   51    0    0    0
SMALL
NO_CHARGES


@<TRIPOS>ATOM
   1 O1             2.7144     2.7361    -2.8284 O.3     
   2 C2             3.2812     1.5122    -3.3322 C.3     
   3 O3             4.6555     1.8528    -3.5926 O.3     
   4 C4             4.9497     2.8703    -2.7305 C.ar    
   5 C5             3.7558     3.4137    -2.2618 C.ar    
   6 C6             6.1597     3.3844    -2.3002 C.ar    
   7 C7             6.1949     4.4455    -1.4006 C.ar    
   8 C8             4.9957     4.9855    -0.9458 C.ar    
   9 C9             3.7876     4.4710    -1.3681 C.ar    
  10 O10            7.2655     5.0814    -0.8441 O.3     
  11 C11            5.3582     6.1184    -0.0233 C.3     
  12 C12            6.8435     6.3580    -0.3267 C.3     
  13 N13            3.9144     7.6394     0.8857 N.am    
  14 C14            4.5300     7.3450    -0.2768 C.2     
  15 C15            5.1297     5.7753     1.4189 C.ar    
  16 C16            5.5977     4.7779     2.2451 C.ar    
  17 C17            5.1926     4.7262     3.5669 C.ar    
  18 C18            4.3168     5.6783     4.0561 C.ar    
  19 C19            3.8446     6.6787     3.2324 C.ar    
  20 C20            4.2472     6.7388     1.9004 C.ar    
  21 O21            4.4342     7.9521    -1.3224 O.2     
  22 C22            3.0032     8.7725     1.0644 C.3     
  23 S23            0.6218     7.5154     2.1781 S.3     
  24 C24           -0.7056     7.3993     1.1068 C.2     
  25 N25           -0.3954     7.9103    -0.0441 N.2     
  26 C26            0.8248     8.4008    -0.1703 C.2     
  27 C27            1.5794     8.2991     0.9242 C.2     
  28 C28            1.3237     9.0243    -1.4483 C.3     
  29 F29            0.2349     9.4654    -2.2081 F       
  30 F30            2.1514    10.1107    -1.1451 F       
  31 F31            2.0480     8.0758    -2.1783 F       
  32 N32           -1.9341     6.8404     1.4223 N.pl3   
  33 H33            3.2175     0.7236    -2.5824 H       
  34 H34            2.7811     1.2087    -4.2519 H       
  35 H35            7.0832     2.9592    -2.6646 H       
  36 H36            2.8642     4.8941    -1.0013 H       
  37 H37            7.3894     6.6064     0.5835 H       
  38 H38            6.9642     7.1391    -1.0772 H       
  39 H39            6.2812     4.0353     1.8608 H       
  40 H40            5.5591     3.9440     4.2152 H       
  41 H41            4.0009     5.6380     5.0880 H       
  42 H42            3.1602     7.4181     3.6216 H       
  43 H43            3.1473     9.2019     2.0559 H       
  44 H44            3.2108     9.5287     0.3074 H       
  45 H45           -2.0887     6.4777     2.3086 H       
  46 H46           -2.6393     6.8120     0.7569 H       
@<TRIPOS>BOND
   1    1    2 1
   2    1    5 1
   3    2    3 1
   4    2   33 1
   5    2   34 1
   6    3    4 1
   7    4    5 ar
   8    4    6 ar
   9    5    9 ar
  10    6    7 ar
  11    6   35 1
  12    7    8 ar
  13    7   10 1
  14    8    9 ar
  15    8   11 1
  16    9   36 1
  17   10   12 1
  18   11   12 1
  19   11   14 1
  20   11   15 1
  21   12   37 1
  22   12   38 1
  23   13   14 am
  24   13   20 1
  25   13   22 1
  26   14   21 2
  27   15   16 ar
  28   15   20 ar
  29   16   17 ar
  30   16   39 1
  31   17   18 ar
  32   17   40 1
  33   18   19 ar
  34   18   41 1
  35   19   20 ar
  36   19   42 1
  37   22   27 1
  38   22   43 1
  39   22   44 1
  40   23   24 1
  41   23   27 1
  42   24   25 2
  43   24   32 1
  44   25   26 1
  45   26   27 2
  46   26   28 1
  47   28   29 1
  48   28   30 1
  49   28   31 1
  50   32   45 1
  51   32   46 1

#	End of record

