#	Name: ASD01140108
#	Creating user name:	WinNT
#	Creation time:	15. 06. 2019 18:59

#	Modifying user name:	WinNT
#	Modification time:	15. 06. 2019 18:59

#	Program:	/corina/corina34_cracker 3.40 0067  02.08.2006

@<TRIPOS>MOLECULE
ASD01140108
  42   42    0    0    0
SMALL
NO_CHARGES


@<TRIPOS>ATOM
   1 C1            -0.1014     1.8620    -0.0163 C.3     
   2 C2            -0.0355     0.3210     0.0464 C.3     
   3 C3             1.3848     0.0112    -0.4758 C.3     
   4 C4             1.9814     1.3680    -0.7900 C.2     
   5 O5             1.2885     2.2978    -0.1073 O.3     
   6 O6             2.9168     1.5784    -1.5252 O.2     
   7 N7            -0.1943    -0.1486     1.4250 N.am    
   8 C8             2.2073    -0.6963     0.6030 C.3     
   9 C9             1.3128    -0.8458    -1.7412 C.3     
  10 C10           -1.4273    -0.3517     1.9299 C.2     
  11 O11           -1.5732    -0.7834     3.1974 O.3     
  12 O12           -2.4072    -0.1455     1.2417 O.2     
  13 C13           -2.8359    -1.0548     3.6143 C.2     
  14 C14            3.5756    -1.0766     0.0338 C.3     
  15 C15            4.4472    -1.6600     1.1478 C.3     
  16 C16            0.6795    -2.1977    -1.4062 C.3     
  17 C17            0.6890    -3.0877    -2.6507 C.3     
  18 C18           -3.8434     0.0588     3.7410 C.3     
  19 C19           -3.1808    -2.2913     3.9081 C.2     
  20 H20           -0.6569     2.1816    -0.8980 H       
  21 H21           -0.5639     2.2581     0.8877 H       
  22 H22           -0.7901    -0.1237    -0.6025 H       
  23 H23            0.5880    -0.3132     1.9744 H       
  24 H24            2.3407    -0.0288     1.4544 H       
  25 H25            1.6850    -1.5970     0.9258 H       
  26 H26            0.7072    -0.3366    -2.4909 H       
  27 H27            2.3184    -1.0025    -2.1316 H       
  28 H28            3.4478    -1.8189    -0.7540 H       
  29 H29            4.0573    -0.1895    -0.3775 H       
  30 H30            3.9655    -2.5471     1.5591 H       
  31 H31            5.4220    -1.9309     0.7423 H       
  32 H32            4.5749    -0.9176     1.9356 H       
  33 H33            1.2491    -2.6788    -0.6111 H       
  34 H34           -0.3482    -2.0456    -1.0761 H       
  35 H35            0.2377    -4.0508    -2.4121 H       
  36 H36            0.1194    -2.6066    -3.4458 H       
  37 H37            1.7166    -3.2398    -2.9808 H       
  38 H38           -4.3756     0.1764     2.7970 H       
  39 H39           -4.5542    -0.1825     4.5312 H       
  40 H40           -3.3289     0.9879     3.9863 H       
  41 H41           -2.4389    -3.0760     3.8967 H       
  42 H42           -4.2056    -2.5206     4.1604 H       
@<TRIPOS>BOND
   1    1    2 1
   2    1    5 1
   3    1   20 1
   4    1   21 1
   5    2    3 1
   6    2    7 1
   7    2   22 1
   8    3    4 1
   9    3    9 1
  10    3    8 1
  11    4    5 1
  12    4    6 2
  13    7   10 am
  14    7   23 1
  15    8   14 1
  16    8   24 1
  17    8   25 1
  18    9   16 1
  19    9   26 1
  20    9   27 1
  21   10   11 1
  22   10   12 2
  23   11   13 1
  24   13   18 1
  25   13   19 2
  26   14   15 1
  27   14   28 1
  28   14   29 1
  29   15   30 1
  30   15   31 1
  31   15   32 1
  32   16   17 1
  33   16   33 1
  34   16   34 1
  35   17   35 1
  36   17   36 1
  37   17   37 1
  38   18   38 1
  39   18   39 1
  40   18   40 1
  41   19   41 1
  42   19   42 1

#	End of record

