#	Name: ASD01200034
#	Creating user name:	WinNT
#	Creation time:	15. 06. 2019 19:08

#	Modifying user name:	WinNT
#	Modification time:	15. 06. 2019 19:08

#	Program:	/corina/corina34_cracker 3.40 0067  02.08.2006

@<TRIPOS>MOLECULE
ASD01200034
  24   25    0    0    0
SMALL
NO_CHARGES


@<TRIPOS>ATOM
   1 C1             0.0576     1.2395    -0.0232 C.ar    
   2 C2            -0.0979    -0.0844     0.3587 C.ar    
   3 C3            -1.3530    -0.6567     0.4006 C.ar    
   4 C4            -2.4715     0.0926     0.0590 C.ar    
   5 C5            -2.3182     1.4333    -0.3282 C.ar    
   6 C6            -1.0417     2.0005    -0.3603 C.ar    
   7 C7            -3.4970     2.2390    -0.6936 C.2     
   8 N8            -3.3617     3.5565    -0.9432 N.am    
   9 C9            -4.4727     4.3158    -1.2876 C.2     
  10 Cl10           1.6434     1.9443    -0.0701 Cl      
  11 N11           -3.7358    -0.4821     0.0997 N.pl3   
  12 N12           -4.4527     5.5859    -1.5469 N.2     
  13 C13           -5.6045     6.1502    -1.8586 C.2     
  14 C14           -6.6471     5.3174    -1.8630 C.2     
  15 S15           -6.0643     3.7100    -1.4385 S.3     
  16 O16           -4.5918     1.7149    -0.7699 O.2     
  17 H17            0.7687    -0.6715     0.6246 H       
  18 H18           -1.4656    -1.6885     0.6991 H       
  19 H19           -0.9153     3.0314    -0.6567 H       
  20 H20           -2.4885     3.9745    -0.8824 H       
  21 H21           -3.8330    -1.4452     0.0382 H       
  22 H22           -4.5213     0.0799     0.1897 H       
  23 H23           -5.6957     7.2009    -2.0910 H       
  24 H24           -7.6692     5.5819    -2.0908 H       
@<TRIPOS>BOND
   1    1    2 ar
   2    1   10 1
   3    1    6 ar
   4    2    3 ar
   5    2   17 1
   6    3    4 ar
   7    3   18 1
   8    4    5 ar
   9    4   11 1
  10    5    6 ar
  11    5    7 1
  12    6   19 1
  13    7    8 am
  14    7   16 2
  15    8    9 1
  16    8   20 1
  17    9   12 2
  18    9   15 1
  19   11   21 1
  20   11   22 1
  21   12   13 1
  22   13   14 2
  23   13   23 1
  24   14   15 1
  25   14   24 1

#	End of record

