#	Name: ASD01881242
#	Creating user name:	WinNT
#	Creation time:	15. 06. 2019 19:42

#	Modifying user name:	WinNT
#	Modification time:	15. 06. 2019 19:42

#	Program:	/corina/corina34_cracker 3.40 0067  02.08.2006

@<TRIPOS>MOLECULE
ASD01881242
  52   55    0    0    0
SMALL
NO_CHARGES


@<TRIPOS>ATOM
   1 N1            -0.0228     1.2630    -0.2230 N.ar    
   2 C2             0.0554    -0.0519    -0.2375 C.ar    
   3 N3             1.1921    -0.6841    -0.0260 N.ar    
   4 C4             2.3142    -0.0109     0.2121 C.ar    
   5 C5             2.2763     1.3776     0.2359 C.ar    
   6 C6             1.0560     2.0083     0.0081 C.ar    
   7 C7             3.5235     2.1804     0.5022 C.3     
   8 O8             4.2466     2.3559    -0.7177 O.3     
   9 C9             5.4035     3.0623    -0.6520 C.ar    
  10 C10            6.1571     3.2705    -1.8036 C.ar    
  11 C11            7.3268     3.9853    -1.7371 C.ar    
  12 C12            7.7689     4.5079    -0.5168 C.ar    
  13 C13            7.0081     4.2961     0.6379 C.ar    
  14 C14            5.8311     3.5816     0.5633 C.ar    
  15 C15            8.3540     4.3835    -2.7675 C.3     
  16 N16            9.3788     5.1495    -2.0492 N.am    
  17 C17            9.0369     5.2186    -0.7512 C.2     
  18 O18            9.6828     5.7876     0.1075 O.2     
  19 Cl19           7.5416     4.9368     2.1606 Cl      
  20 N20            0.9659     3.3914     0.0209 N.3     
  21 C21           -0.3040     3.8311     0.6170 C.3     
  22 C22           -0.3359     5.3610     0.6657 C.3     
  23 O23           -0.1494     5.8790    -0.6542 O.3     
  24 C24            1.0780     5.4710    -1.2646 C.3     
  25 C25            1.1242     3.9422    -1.3329 C.3     
  26 C26           10.2644     7.1656    -3.1135 C.3     
  27 C27           10.5773     5.7420    -2.6483 C.3     
  28 O28            3.4784    -0.6704     0.4290 O.3     
  29 C29            3.4325    -2.0981     0.3882 C.3     
  30 H30           -0.8378    -0.6283    -0.4280 H       
  31 H31            3.2490     3.1552     0.9053 H       
  32 H32            4.1486     1.6524     1.2224 H       
  33 H33            5.8218     2.8695    -2.7487 H       
  34 H34            5.2435     3.4183     1.4546 H       
  35 H35            8.7970     3.4952    -3.2178 H       
  36 H36            7.8927     5.0035    -3.5362 H       
  37 H37           -1.1349     3.4688     0.0117 H       
  38 H38           -0.3886     3.4329     1.6281 H       
  39 H39           -1.2988     5.6928     1.0541 H       
  40 H40            0.4626     5.7213     1.3143 H       
  41 H41            1.1376     5.8823    -2.2723 H       
  42 H42            1.9176     5.8345    -0.6722 H       
  43 H43            2.0822     3.6251    -1.7451 H       
  44 H44            0.3161     3.5817    -1.9694 H       
  45 H45           11.1560     7.6064    -3.5592 H       
  46 H46            9.4639     7.1386    -3.8529 H       
  47 H47            9.9502     7.7660    -2.2597 H       
  48 H48           11.3777     5.7691    -1.9089 H       
  49 H49           10.8914     5.1416    -3.5021 H       
  50 H50            2.7436    -2.4614     1.1508 H       
  51 H51            3.0907    -2.4227    -0.5946 H       
  52 H52            4.4283    -2.4992     0.5774 H       
@<TRIPOS>BOND
   1    1    2 ar
   2    1    6 ar
   3    2    3 ar
   4    2   30 1
   5    3    4 ar
   6    4    5 ar
   7    4   28 1
   8    5    6 ar
   9    5    7 1
  10    6   20 1
  11    7    8 1
  12    7   31 1
  13    7   32 1
  14    8    9 1
  15    9   10 ar
  16    9   14 ar
  17   10   11 ar
  18   10   33 1
  19   11   12 ar
  20   11   15 1
  21   12   13 ar
  22   12   17 1
  23   13   14 ar
  24   13   19 1
  25   14   34 1
  26   15   16 1
  27   15   35 1
  28   15   36 1
  29   16   17 am
  30   16   27 1
  31   17   18 2
  32   20   21 1
  33   20   25 1
  34   21   22 1
  35   21   37 1
  36   21   38 1
  37   22   23 1
  38   22   39 1
  39   22   40 1
  40   23   24 1
  41   24   25 1
  42   24   41 1
  43   24   42 1
  44   25   43 1
  45   25   44 1
  46   26   27 1
  47   26   45 1
  48   26   46 1
  49   26   47 1
  50   27   48 1
  51   27   49 1
  52   28   29 1
  53   29   50 1
  54   29   51 1
  55   29   52 1

#	End of record

