#	Name: ASD04660042
#	Creating user name:	WinNT
#	Creation time:	15. 06. 2019 20:52

#	Modifying user name:	WinNT
#	Modification time:	15. 06. 2019 20:52

#	Program:	/corina/corina34_cracker 3.40 0067  02.08.2006

@<TRIPOS>MOLECULE
ASD04660042
  31   31    0    0    0
SMALL
NO_CHARGES


@<TRIPOS>ATOM
   1 C1             0.1362     0.8576    -0.0739 C.ar    
   2 C2             0.3468    -0.4763     0.2958 C.ar    
   3 C3             1.6459    -0.9282     0.5579 C.ar    
   4 C4             2.7084    -0.0602     0.4510 C.ar    
   5 C5             2.4937     1.2636     0.0840 C.ar    
   6 C6             1.2057     1.7174    -0.1779 C.ar    
   7 C7            -0.7912    -1.3984     0.4087 C.2     
   8 C8            -1.9010    -3.5716     0.8496 C.3     
   9 C9            -0.5615    -2.8336     0.8068 C.3     
  10 O10           -1.9156    -1.0046     0.1815 O.2     
  11 O11            3.5450     2.1159    -0.0191 O.3     
  12 C12            4.3205     2.0009    -1.1146 C.2     
  13 N13            5.4395     2.7433    -1.2292 N.am    
  14 O14            4.0111     1.2277    -1.9995 O.2     
  15 C15            6.2828     2.6182    -2.4205 C.3     
  16 C16            5.8124     3.6755    -0.1623 C.3     
  17 H17           -0.8634     1.2100    -0.2815 H       
  18 H18            1.8137    -1.9561     0.8437 H       
  19 H19            3.7108    -0.4077     0.6530 H       
  20 H20            1.0443     2.7466    -0.4626 H       
  21 H21           -2.3661    -3.5379    -0.1356 H       
  22 H22           -1.7349    -4.6097     1.1375 H       
  23 H23           -2.5564    -3.0932     1.5773 H       
  24 H24            0.0939    -3.3121     0.0790 H       
  25 H25           -0.0964    -2.8674     1.7920 H       
  26 H26            5.9517     3.3303    -3.1764 H       
  27 H27            7.3195     2.8256    -2.1553 H       
  28 H28            6.2046     1.6056    -2.8163 H       
  29 H29            6.4452     3.1636     0.5627 H       
  30 H30            6.3572     4.5174    -0.5895 H       
  31 H31            4.9125     4.0391     0.3336 H       
@<TRIPOS>BOND
   1    1    2 ar
   2    1    6 ar
   3    1   17 1
   4    2    3 ar
   5    2    7 1
   6    3    4 ar
   7    3   18 1
   8    4    5 ar
   9    4   19 1
  10    5    6 ar
  11    5   11 1
  12    6   20 1
  13    7   10 2
  14    7    9 1
  15    8    9 1
  16    8   21 1
  17    8   22 1
  18    8   23 1
  19    9   24 1
  20    9   25 1
  21   11   12 1
  22   12   13 am
  23   12   14 2
  24   13   15 1
  25   13   16 1
  26   15   26 1
  27   15   27 1
  28   15   28 1
  29   16   29 1
  30   16   30 1
  31   16   31 1

#	End of record

