#	Name: ASD01811314
#	Creating user name:	WinNT
#	Creation time:	15. 06. 2019 19:26

#	Modifying user name:	WinNT
#	Modification time:	15. 06. 2019 19:26

#	Program:	/corina/corina34_cracker 3.40 0067  02.08.2006

@<TRIPOS>MOLECULE
ASD01811314
  58   60    0    0    0
SMALL
NO_CHARGES


@<TRIPOS>ATOM
   1 N1            -0.0369     1.4006     0.3510 N.am    
   2 C2            -0.0604     0.1000    -0.0018 C.2     
   3 O3             0.9095    -0.4027    -0.5357 O.2     
   4 N4            -1.1588    -0.6434     0.2374 N.am    
   5 C5            -1.1843    -2.0571    -0.1460 C.3     
   6 C6            -2.5363    -2.6643     0.2341 C.3     
   7 O7            -3.5695    -2.0454    -0.5350 O.3     
   8 C8            -4.8795    -2.5431    -0.2555 C.3     
   9 C9             1.1323     2.1511     0.1804 C.ar    
  10 C10            1.0516     3.5147    -0.0757 C.ar    
  11 C11            2.2031     4.2601    -0.2453 C.ar    
  12 C12            3.4408     3.6552    -0.1615 C.ar    
  13 C13            3.5326     2.2865     0.0958 C.ar    
  14 C14            2.3705     1.5354     0.2726 C.ar    
  15 C15           -0.2960     4.1828    -0.1693 C.3     
  16 C16            4.8573     1.6358     0.1856 C.2     
  17 O17            4.9976     0.4884    -0.1904 O.2     
  18 N18            5.9092     2.3148     0.6844 N.am    
  19 C19            7.2546     1.7246     0.6732 C.3     
  20 C20            7.8238     1.7677     2.0948 C.3     
  21 C21            7.7724     3.2053     2.6173 C.3     
  22 C22            6.3186     3.6810     2.6644 C.3     
  23 C23            5.7333     3.6619     1.2442 C.3     
  24 C24            8.3629     3.2573     4.0028 C.ar    
  25 C25            7.5635     2.9680     5.0943 C.ar    
  26 C26            8.1087     3.0162     6.3649 C.ar    
  27 C27            9.4605     3.3594     6.4944 C.ar    
  28 C28           10.1986     3.6372     5.3428 C.ar    
  29 N29            9.6348     3.5728     4.1544 N.ar    
  30 C30           10.0746     3.4245     7.7864 C.1     
  31 N31           10.5619     3.4762     8.8113 N.1     
  32 H32           -0.8315     1.8176     0.7193 H       
  33 H33           -1.9326    -0.2424     0.6634 H       
  34 H34           -1.0365    -2.1444    -1.2224 H       
  35 H35           -0.3879    -2.5891     0.3744 H       
  36 H36           -2.5237    -3.7351     0.0306 H       
  37 H37           -2.7238    -2.4982     1.2949 H       
  38 H38           -5.6065    -2.0231    -0.8793 H       
  39 H39           -4.9156    -3.6113    -0.4691 H       
  40 H40           -5.1157    -2.3745     0.7952 H       
  41 H41            2.1340     5.3193    -0.4445 H       
  42 H42            4.3383     4.2410    -0.2954 H       
  43 H43            2.4353     0.4767     0.4763 H       
  44 H44           -0.5963     4.5349     0.8176 H       
  45 H45           -0.2354     5.0287    -0.8540 H       
  46 H46           -1.0310     3.4679    -0.5392 H       
  47 H47            7.1972     0.6904     0.3338 H       
  48 H48            7.8986     2.2956     0.0044 H       
  49 H49            7.2308     1.1233     2.7438 H       
  50 H50            8.8573     1.4214     2.0836 H       
  51 H51            8.3453     3.8534     1.9540 H       
  52 H52            5.7397     3.0186     3.3080 H       
  53 H53            6.2807     4.6966     3.0586 H       
  54 H54            6.2557     4.3876     0.6209 H       
  55 H55            4.6717     3.9063     1.2816 H       
  56 H56            6.5245     2.7075     4.9559 H       
  57 H57            7.5074     2.7954     7.2344 H       
  58 H58           11.2420     3.9033     5.4267 H       
@<TRIPOS>BOND
   1    1    2 am
   2    1    9 1
   3    1   32 1
   4    2    3 2
   5    2    4 am
   6    4    5 1
   7    4   33 1
   8    5    6 1
   9    5   34 1
  10    5   35 1
  11    6    7 1
  12    6   36 1
  13    6   37 1
  14    7    8 1
  15    8   38 1
  16    8   39 1
  17    8   40 1
  18    9   10 ar
  19    9   14 ar
  20   10   11 ar
  21   10   15 1
  22   11   12 ar
  23   11   41 1
  24   12   13 ar
  25   12   42 1
  26   13   14 ar
  27   13   16 1
  28   14   43 1
  29   15   44 1
  30   15   45 1
  31   15   46 1
  32   16   17 2
  33   16   18 am
  34   18   19 1
  35   18   23 1
  36   19   20 1
  37   19   47 1
  38   19   48 1
  39   20   21 1
  40   20   49 1
  41   20   50 1
  42   21   22 1
  43   21   24 1
  44   21   51 1
  45   22   23 1
  46   22   52 1
  47   22   53 1
  48   23   54 1
  49   23   55 1
  50   24   25 ar
  51   24   29 ar
  52   25   26 ar
  53   25   56 1
  54   26   27 ar
  55   26   57 1
  56   27   28 ar
  57   27   30 1
  58   28   29 ar
  59   28   58 1
  60   30   31 3

#	End of record

