#	Name: ASD01911470
#	Creating user name:	WinNT
#	Creation time:	15. 06. 2019 19:57

#	Modifying user name:	WinNT
#	Modification time:	15. 06. 2019 19:57

#	Program:	/corina/corina34_cracker 3.40 0067  02.08.2006

@<TRIPOS>MOLECULE
ASD01911470
  42   43    0    0    0
SMALL
NO_CHARGES


@<TRIPOS>ATOM
   1 N1            -0.0162     1.3400     0.0094 N.am    
   2 C2             0.0139     0.0167    -0.2246 C.2     
   3 C3             1.4370    -0.4918    -0.1549 C.3     
   4 C4             2.2089     0.6388     0.5640 C.3     
   5 C5             1.3316     1.8701     0.2469 C.3     
   6 O6            -0.9584    -0.6698    -0.4573 O.2     
   7 C7            -1.1769     2.1103     0.0193 C.ar    
   8 C8            -2.4181     1.4810     0.0225 C.ar    
   9 C9            -3.5645     2.2503     0.0328 C.ar    
  10 C10           -3.4303     3.6451     0.0396 C.ar    
  11 C11           -2.1521     4.2019     0.0358 C.ar    
  12 N12           -1.0838     3.4310     0.0310 N.ar    
  13 C13           -4.5891     4.4864     0.0499 C.1     
  14 C14           -5.5392     5.1761     0.0583 C.1     
  15 Si15          -7.0767     6.2922     0.0719 Si      
  16 C16           -6.5473     8.0784     0.0789 C.3     
  17 C17           -8.1027     5.9545    -1.4460 C.3     
  18 C18           -8.0876     5.9381     1.5962 C.3     
  19 C19            2.2726     0.3855     2.0716 C.3     
  20 C20            3.6130     0.8014    -0.0216 C.3     
  21 H21            1.4846    -1.4142     0.4239 H       
  22 H22            1.8357    -0.6484    -1.1573 H       
  23 H23            1.7004     2.3764    -0.6451 H       
  24 H24            1.3234     2.5557     1.0943 H       
  25 H25           -2.4838     0.4030     0.0167 H       
  26 H26           -4.5407     1.7884     0.0351 H       
  27 H27           -2.0366     5.2757     0.0410 H       
  28 H28           -5.9559     8.2856    -0.8129 H       
  29 H29           -7.4294     8.7187     0.0867 H       
  30 H30           -5.9471     8.2760     0.9670 H       
  31 H31           -8.4124     4.9095    -1.4501 H       
  32 H32           -8.9847     6.5948    -1.4382 H       
  33 H33           -7.5112     6.1617    -2.3378 H       
  34 H34           -7.4873     6.1357     2.4843 H       
  35 H35           -8.9697     6.5785     1.6040 H       
  36 H36           -8.3973     4.8931     1.5921 H       
  37 H37            2.8040    -0.5472     2.2611 H       
  38 H38            2.7983     1.2081     2.5563 H       
  39 H39            1.2610     0.3150     2.4712 H       
  40 H40            3.5392     1.0219    -1.0865 H       
  41 H41            4.1251     1.6198     0.4843 H       
  42 H42            4.1750    -0.1218     0.1202 H       
@<TRIPOS>BOND
   1    1    2 am
   2    1    5 1
   3    1    7 1
   4    2    3 1
   5    2    6 2
   6    3    4 1
   7    3   21 1
   8    3   22 1
   9    4    5 1
  10    4   19 1
  11    4   20 1
  12    5   23 1
  13    5   24 1
  14    7    8 ar
  15    7   12 ar
  16    8    9 ar
  17    8   25 1
  18    9   10 ar
  19    9   26 1
  20   10   11 ar
  21   10   13 1
  22   11   12 ar
  23   11   27 1
  24   13   14 3
  25   14   15 1
  26   15   16 1
  27   15   17 1
  28   15   18 1
  29   16   28 1
  30   16   29 1
  31   16   30 1
  32   17   31 1
  33   17   32 1
  34   17   33 1
  35   18   34 1
  36   18   35 1
  37   18   36 1
  38   19   37 1
  39   19   38 1
  40   19   39 1
  41   20   40 1
  42   20   41 1
  43   20   42 1

#	End of record

