#	Name: ASD01870553
#	Creating user name:	WinNT
#	Creation time:	15. 06. 2019 19:39

#	Modifying user name:	WinNT
#	Modification time:	15. 06. 2019 19:39

#	Program:	/corina/corina34_cracker 3.40 0067  02.08.2006

@<TRIPOS>MOLECULE
ASD01870553
  47   51    0    0    0
SMALL
NO_CHARGES


@<TRIPOS>ATOM
   1 N1            -0.1512     1.4537    -0.2475 N.2     
   2 C2            -0.5979     0.5807    -1.1400 C.ar    
   3 C3             0.1317     0.7622    -2.3433 C.ar    
   4 N4             0.8685     2.2245    -0.8233 N.pl3   
   5 C5            -1.5964    -0.4273    -1.1177 C.ar    
   6 N6            -1.7951    -1.1425    -2.2139 N.ar    
   7 C7            -1.0868    -0.9347    -3.3146 C.ar    
   8 N8            -0.1523    -0.0193    -3.3952 N.ar    
   9 C9             1.6312     3.2373    -0.3223 C.2     
  10 C10            1.0480     1.8043    -2.1136 C.2     
  11 C11            2.0158     2.4135    -2.9220 C.2     
  12 C12            2.7744     3.4265    -2.4103 C.2     
  13 C13            2.5705     3.8387    -1.0865 C.2     
  14 N14           -2.3433    -0.6573     0.0214 N.pl3   
  15 C15           -3.3699    -1.7024     0.0255 C.3     
  16 C16           -5.1421    -1.8574     1.7210 C.3     
  17 C17           -5.1901    -0.3016     1.8127 C.3     
  18 C18           -4.9207     0.1834     0.3699 C.3     
  19 C19           -4.7354    -1.1251    -0.4577 C.3     
  20 C20           -3.6393    -2.1874     1.4684 C.3     
  21 C21           -4.9054    -0.9884    -1.9720 C.3     
  22 C22           -5.7338    -2.0818     0.2847 C.3     
  23 C23           -5.5874    -3.5334    -0.1759 C.3     
  24 C24           -7.1807    -1.5960     0.1779 C.3     
  25 H25           -1.2879    -1.5460    -4.1820 H       
  26 H26            1.4832     3.5632     0.6966 H       
  27 H27            2.1609     2.0847    -3.9404 H       
  28 H28            3.5249     3.9066    -3.0207 H       
  29 H29            3.1666     4.6396    -0.6748 H       
  30 H30           -2.1881    -0.1268     0.8184 H       
  31 H31           -3.0648    -2.5362    -0.6068 H       
  32 H32           -5.6295    -2.3978     2.5325 H       
  33 H33           -6.1733     0.0292     2.1474 H       
  34 H34           -4.4155     0.0634     2.4871 H       
  35 H35           -5.7715     0.7526    -0.0047 H       
  36 H36           -4.0137     0.7868     0.3350 H       
  37 H37           -3.4676    -3.2610     1.5467 H       
  38 H38           -3.0079    -1.6482     2.1746 H       
  39 H39           -4.7906    -1.9661    -2.4402 H       
  40 H40           -5.8976    -0.5944    -2.1922 H       
  41 H41           -4.1492    -0.3075    -2.3626 H       
  42 H42           -6.1375    -4.1868     0.5014 H       
  43 H43           -5.9870    -3.6366    -1.1847 H       
  44 H44           -4.5334    -3.8112    -0.1724 H       
  45 H45           -7.2272    -0.5355     0.4257 H       
  46 H46           -7.5406    -1.7474    -0.8398 H       
  47 H47           -7.8052    -2.1589     0.8716 H       
@<TRIPOS>BOND
   1    1    2 2
   2    1    4 1
   3    2    3 ar
   4    2    5 ar
   5    3   10 2
   6    3    8 ar
   7    4   10 1
   8    4    9 1
   9    5    6 ar
  10    5   14 1
  11    6    7 ar
  12    7    8 ar
  13    7   25 1
  14    9   13 2
  15    9   26 1
  16   10   11 1
  17   11   12 2
  18   11   27 1
  19   12   13 1
  20   12   28 1
  21   13   29 1
  22   14   15 1
  23   14   30 1
  24   15   19 1
  25   15   20 1
  26   15   31 1
  27   16   17 1
  28   16   22 1
  29   16   20 1
  30   16   32 1
  31   17   18 1
  32   17   33 1
  33   17   34 1
  34   18   19 1
  35   18   35 1
  36   18   36 1
  37   19   21 1
  38   19   22 1
  39   20   37 1
  40   20   38 1
  41   21   39 1
  42   21   40 1
  43   21   41 1
  44   22   23 1
  45   22   24 1
  46   23   42 1
  47   23   43 1
  48   23   44 1
  49   24   45 1
  50   24   46 1
  51   24   47 1

#	End of record

