#	Name: ASD03091424
#	Creating user name:	WinNT
#	Creation time:	15. 06. 2019 20:30

#	Modifying user name:	WinNT
#	Modification time:	15. 06. 2019 20:30

#	Program:	/corina/corina34_cracker 3.40 0067  02.08.2006

@<TRIPOS>MOLECULE
ASD03091424
  32   34    0    0    0
SMALL
NO_CHARGES


@<TRIPOS>ATOM
   1 C1             0.0342     1.6915    -0.0449 C.3     
   2 C2            -0.0005     0.1632    -0.1103 C.3     
   3 N3             0.6564    -0.3941     1.0790 N.3     
   4 C4            -0.0450     0.0021     2.3067 C.3     
   5 C5            -0.0123     1.5255     2.4462 C.3     
   6 C6             1.4441     1.9965     2.5210 C.3     
   7 N7             2.1055     1.6899     1.2454 N.am    
   8 C8             1.4913     2.1641    -0.0022 C.3     
   9 C9            -0.6830     2.1608     1.2245 C.3     
  10 C10            3.2546     0.9861     1.2201 C.2     
  11 O11            3.8150     0.6984     2.2615 O.2     
  12 O12            3.2462     0.6958    -1.2717 O.3     
  13 C13            3.8293     0.5672    -0.0614 C.2     
  14 C14            5.0491    -0.0212    -0.2398 C.2     
  15 C15            5.1899    -0.2491    -1.6167 C.2     
  16 C16            4.0632     0.2047    -2.2129 C.2     
  17 Br17           3.7014     0.1537    -4.0682 Br      
  18 H18           -0.4587     2.1060    -0.9243 H       
  19 H19           -1.0360    -0.1754    -0.1454 H       
  20 H20            0.5222    -0.1740    -1.0054 H       
  21 H21            0.7315    -1.3982     1.0135 H       
  22 H22           -1.0802    -0.3359     2.2588 H       
  23 H23            0.4455    -0.4519     3.1678 H       
  24 H24           -0.5387     1.8206     3.3539 H       
  25 H25            1.4719     3.0717     2.6980 H       
  26 H26            1.9550     1.4771     3.3317 H       
  27 H27            2.0332     1.7551    -0.8549 H       
  28 H28            1.5233     3.2532    -0.0344 H       
  29 H29           -0.6201     3.2465     1.2980 H       
  30 H30           -1.7293     1.8577     1.1848 H       
  31 H31            5.7665    -0.2636     0.5303 H       
  32 H32            6.0383    -0.7017    -2.1086 H       
@<TRIPOS>BOND
   1    1    2 1
   2    1    8 1
   3    1    9 1
   4    1   18 1
   5    2    3 1
   6    2   19 1
   7    2   20 1
   8    3    4 1
   9    3   21 1
  10    4    5 1
  11    4   22 1
  12    4   23 1
  13    5    6 1
  14    5    9 1
  15    5   24 1
  16    6    7 1
  17    6   25 1
  18    6   26 1
  19    7    8 1
  20    7   10 am
  21    8   27 1
  22    8   28 1
  23    9   29 1
  24    9   30 1
  25   10   11 2
  26   10   13 1
  27   12   13 1
  28   12   16 1
  29   13   14 2
  30   14   15 1
  31   14   31 1
  32   15   16 2
  33   15   32 1
  34   16   17 1

#	End of record

