#	Name: ASD08150980
#	Creating user name:	WinNT
#	Creation time:	15. 06. 2019 21:16

#	Modifying user name:	WinNT
#	Modification time:	15. 06. 2019 21:16

#	Program:	/corina/corina34_cracker 3.40 0067  02.08.2006

@<TRIPOS>MOLECULE
ASD08150980
  44   48    0    0    0
SMALL
NO_CHARGES


@<TRIPOS>ATOM
   1 N1            -0.2871     1.4166     0.0174 N.2     
   2 C2            -0.6990     0.2821     0.5042 C.2     
   3 N3            -0.3788     0.1990     1.8266 N.pl3   
   4 C4             0.2703     1.3590     2.1663 C.ar    
   5 N5             0.8064     1.8422     3.2822 N.ar    
   6 C6             1.3786     3.0277     3.2930 C.ar    
   7 N7             1.4508     3.7897     2.2170 N.ar    
   8 C8             0.9427     3.3906     1.0556 C.ar    
   9 C9             0.3218     2.1317     0.9937 C.ar    
  10 N10            1.0228     4.1965    -0.0666 N.pl3   
  11 C11            1.6735     5.5064     0.0171 C.3     
  12 C12            2.1719     5.9178    -1.3697 C.3     
  13 N13            0.3431     9.8744     2.1671 N.pl3   
  14 N14           -0.9429    10.3714     2.4113 N.2     
  15 C15           -1.8307     9.5179     1.9907 C.2     
  16 C16           -1.1578     8.3998     1.4404 C.ar    
  17 C17           -1.5945     7.2040     0.8513 C.ar    
  18 C18           -0.6755     6.2851     0.3992 C.ar    
  19 C19            0.6850     6.5272     0.5189 C.ar    
  20 C20            1.1423     7.7025     1.0979 C.ar    
  21 C21            0.2198     8.6510     1.5646 C.ar    
  22 C22            2.5980     7.9548     1.2221 C.ar    
  23 C23            3.1877     9.0055     0.5215 C.ar    
  24 C24            4.5454     9.2369     0.6405 C.ar    
  25 C25            5.3197     8.4261     1.4540 C.ar    
  26 C26            4.7381     7.3804     2.1519 C.ar    
  27 C27            3.3801     7.1455     2.0444 C.ar    
  28 F28            5.4983     6.5927     2.9436 F       
  29 F29            5.1181    10.2550    -0.0382 F       
  30 Cl30          -3.2933     6.8833     0.6934 Cl      
  31 H31           -1.2182    -0.4809    -0.0568 H       
  32 H32           -0.5743    -0.5439     2.4189 H       
  33 H33            1.8046     3.3908     4.2166 H       
  34 H34            0.6481     3.8940    -0.9087 H       
  35 H35            2.5175     5.4495     0.7045 H       
  36 H36            1.3279     5.9747    -2.0570 H       
  37 H37            2.6561     6.8924    -1.3073 H       
  38 H38            2.8869     5.1795    -1.7326 H       
  39 H39            1.1766    10.3210     2.3834 H       
  40 H40           -2.9019     9.6413     2.0516 H       
  41 H41           -1.0170     5.3658    -0.0533 H       
  42 H42            2.5849     9.6377    -0.1136 H       
  43 H43            6.3801     8.6097     1.5442 H       
  44 H44            2.9267     6.3329     2.5926 H       
@<TRIPOS>BOND
   1    1    2 2
   2    1    9 1
   3    2    3 1
   4    2   31 1
   5    3    4 1
   6    3   32 1
   7    4    5 ar
   8    4    9 ar
   9    5    6 ar
  10    6    7 ar
  11    6   33 1
  12    7    8 ar
  13    8    9 ar
  14    8   10 1
  15   10   11 1
  16   10   34 1
  17   11   12 1
  18   11   19 1
  19   11   35 1
  20   12   36 1
  21   12   37 1
  22   12   38 1
  23   13   14 1
  24   13   21 1
  25   13   39 1
  26   14   15 2
  27   15   16 1
  28   15   40 1
  29   16   17 ar
  30   16   21 ar
  31   17   18 ar
  32   17   30 1
  33   18   19 ar
  34   18   41 1
  35   19   20 ar
  36   20   21 ar
  37   20   22 1
  38   22   23 ar
  39   22   27 ar
  40   23   24 ar
  41   23   42 1
  42   24   25 ar
  43   24   29 1
  44   25   26 ar
  45   25   43 1
  46   26   27 ar
  47   26   28 1
  48   27   44 1

#	End of record

