#	Name: ASD06150003
#	Creating user name:	WinNT
#	Creation time:	15. 06. 2019 21:05

#	Modifying user name:	WinNT
#	Modification time:	15. 06. 2019 21:05

#	Program:	/corina/corina34_cracker 3.40 0067  02.08.2006

@<TRIPOS>MOLECULE
ASD06150003
 170  171    0    0    0
SMALL
NO_CHARGES


@<TRIPOS>ATOM
   1 C1             0.4408     5.6966    -3.7852 C.3     
   2 C2            -0.3963     4.8820    -4.7735 C.3     
   3 C3             0.2577     3.5437    -5.0020 C.2     
   4 N4            -1.7403     4.6817    -4.2260 N.am    
   5 O5            -0.2222     2.5429    -4.5131 O.2     
   6 C6             1.8141     5.9837    -4.3955 C.3     
   7 C7            -0.2693     7.0177    -3.4830 C.3     
   8 C8             1.6948     1.8416    -7.5563 C.3     
   9 C9             1.9402     2.1473    -6.0774 C.3     
  10 C10            3.4224     2.1560    -5.8055 C.2     
  11 N11            1.3759     3.4589    -5.7496 N.am    
  12 O12            3.9550     3.1590    -5.3798 O.2     
  13 C13            0.2151     1.6915    -7.7994 C.2     
  14 N14           -0.2476     1.5185    -9.0534 N.am    
  15 O15           -0.5593     1.7264    -6.8667 O.2     
  16 C16           -7.0237     8.8172    -2.1778 C.3     
  17 C17           -5.6656     8.2613    -2.6107 C.3     
  18 C18           -4.7154     8.2895    -1.4413 C.2     
  19 N19           -5.8286     6.8775    -3.0759 N.3     
  20 O20           -4.2247     7.2628    -1.0372 O.2     
  21 C21           -7.9565     8.8422    -3.3611 C.ar    
  22 C22           -8.8324     7.7940    -3.5730 C.ar    
  23 C23           -9.6881     7.8169    -4.6584 C.ar    
  24 C24           -9.6682     8.8883    -5.5317 C.ar    
  25 C25           -8.7929     9.9370    -5.3193 C.ar    
  26 C26           -7.9403     9.9160    -4.2314 C.ar    
  27 C27           -4.6860     4.1589    -4.4483 C.3     
  28 C28           -4.0693     5.4191    -3.8379 C.3     
  29 C29           -2.6867     5.6251    -4.4011 C.2     
  30 N30           -4.9080     6.5808    -4.1615 N.3     
  31 O31           -2.4258     6.6399    -5.0119 O.2     
  32 C32           -6.0170     3.8848    -3.7968 C.ar    
  33 C33           -7.1825     4.3260    -4.3957 C.ar    
  34 C34           -8.4038     4.0760    -3.8004 C.ar    
  35 C35           -8.4602     3.3816    -2.6007 C.ar    
  36 C36           -7.2893     2.9399    -2.0018 C.ar    
  37 C37           -6.0709     3.1876    -2.6040 C.ar    
  38 O38           -9.6604     3.1348    -2.0129 O.3     
  39 C39            6.1212    -0.3009    -5.4899 C.3     
  40 C40            5.6120     1.0892    -5.8759 C.3     
  41 C41            6.2479     1.5144    -7.1743 C.2     
  42 N42            4.1562     1.0491    -6.0353 N.am    
  43 O43            5.5535     1.7598    -8.1379 O.2     
  44 C44            5.5789    -0.6762    -4.1348 C.2     
  45 O45            4.9429     0.1275    -3.4949 O.2     
  46 O46            5.8023    -1.9032    -3.6388 O.3     
  47 C47            8.2253     3.5631    -8.6094 C.3     
  48 C48            8.2065     2.0354    -8.5270 C.3     
  49 C49            9.6181     1.5116    -8.5902 C.2     
  50 N50            7.5883     1.6220    -7.2647 N.am    
  51 O51           10.0639     0.8574    -7.6714 O.2     
  52 C52            6.7895     4.0882    -8.6708 C.3     
  53 C53            6.8080     5.5929    -8.7520 C.2     
  54 O54            7.8654     6.1868    -8.7600 O.2     
  55 N55            5.6494     6.2785    -8.8158 N.am    
  56 C56           11.7461    -0.1726   -10.2640 C.3     
  57 C57           11.7575     1.2609    -9.7292 C.3     
  58 C58           12.5762     2.1326   -10.6462 C.2     
  59 N59           10.3852     1.7701    -9.6678 N.am    
  60 O60           12.0638     3.0855   -11.1944 O.2     
  61 C61           11.0210    -1.0820    -9.2700 C.3     
  62 C62           11.0096    -2.5154    -9.8048 C.3     
  63 C63           10.2845    -3.4249    -8.8108 C.3     
  64 N64           10.2735    -4.8012    -9.3242 N.3     
  65 C65           15.2093     3.9019   -10.9666 C.3     
  66 C66           14.6736     2.7009   -11.7485 C.3     
  67 C67           15.8284     1.9048   -12.2998 C.2     
  68 N68           13.8777     1.8534   -10.8571 N.am    
  69 O69           15.9724     0.7440   -11.9796 O.2     
  70 C70           14.0398     4.7778   -10.5128 C.3     
  71 C71           14.5674     5.9608    -9.7427 C.2     
  72 O72           15.7568     6.0901    -9.5740 O.2     
  73 O73           13.7160     6.8709    -9.2441 O.3     
  74 C74           17.3637     0.9315   -14.9193 C.3     
  75 C75           17.8237     1.7092   -13.6846 C.3     
  76 C76           18.9412     2.6448   -14.0678 C.2     
  77 N77           16.7011     2.4830   -13.1486 N.am    
  78 O78           18.8126     3.8402   -13.9089 O.2     
  79 C79           16.3169    -0.1058   -14.5079 C.3     
  80 C80           15.7661    -0.7974   -15.7565 C.3     
  81 C81           16.9630    -1.1467   -13.5914 C.3     
  82 C82           22.5016     2.3103   -14.9182 C.3     
  83 C83           21.1700     3.0625   -14.9596 C.3     
  84 C84           20.9317     3.5857   -16.3527 C.2     
  85 N85           20.0836     2.1530   -14.5871 N.am    
  86 O86           19.9552     3.2350   -16.9706 O.2     
  87 O87           22.5035     1.2896   -15.9183 O.3     
  88 H88            0.5647     5.1311    -2.8616 H       
  89 H89           -0.4656     5.4188    -5.7196 H       
  90 H90           -1.9490     3.8701    -3.7375 H       
  91 H91            2.3764     6.6407    -3.7320 H       
  92 H92            2.3570     5.0475    -4.5254 H       
  93 H93            1.6874     6.4675    -5.3640 H       
  94 H94           -0.3719     7.5937    -4.4026 H       
  95 H95           -1.2572     6.8130    -3.0703 H       
  96 H96            0.3153     7.5875    -2.7607 H       
  97 H97            2.0820     2.6585    -8.1653 H       
  98 H98            2.2029     0.9155    -7.8251 H       
  99 H99            1.4628     1.3829    -5.4643 H       
 100 H100           1.8070     4.2663    -6.0707 H       
 101 H101           0.3717     1.4906    -9.7994 H       
 102 H102          -1.2000     1.4219    -9.2099 H       
 103 H103          -7.4438     8.1829    -1.3973 H       
 104 H104          -6.8964     9.8294    -1.7940 H       
 105 H105          -5.2643     8.8717    -3.4197 H       
 106 H106          -4.4733     9.2280    -0.9648 H       
 107 H107          -5.7134     6.2244    -2.3154 H       
 108 H108          -8.8480     6.9569    -2.8907 H       
 109 H109         -10.3719     6.9976    -4.8244 H       
 110 H110         -10.3362     8.9059    -6.3802 H       
 111 H111          -8.7771    10.7739    -6.0018 H       
 112 H112          -7.2591    10.7371    -4.0634 H       
 113 H113          -4.8290     4.3063    -5.5188 H       
 114 H114          -4.0198     3.3121    -4.2840 H       
 115 H115          -4.0075     5.3057    -2.7556 H       
 116 H116          -5.4048     6.4380    -5.0281 H       
 117 H117          -7.1380     4.8669    -5.3294 H       
 118 H118          -9.3138     4.4212    -4.2684 H       
 119 H119          -7.3306     2.3991    -1.0679 H       
 120 H120          -5.1594     2.8401    -2.1404 H       
 121 H121         -10.1038     2.3411    -2.3423 H       
 122 H122           5.7869    -1.0287    -6.2293 H       
 123 H123           7.2107    -0.2922    -5.4555 H       
 124 H124           5.8723     1.8018    -5.0933 H       
 125 H125           3.7205     0.2259    -6.3062 H       
 126 H126           5.4346    -2.0975    -2.7658 H       
 127 H127           8.7230     3.9684    -7.7284 H       
 128 H128           8.7638     3.8720    -9.5053 H       
 129 H129           7.6321     1.6335    -9.3616 H       
 130 H130           8.1437     1.4258    -6.4941 H       
 131 H131           6.2918     3.6828    -9.5518 H       
 132 H132           6.2510     3.7792    -7.7749 H       
 133 H133           4.8037     5.8035    -8.8095 H       
 134 H134           5.6613     7.2471    -8.8681 H       
 135 H135          11.2296    -0.1983   -11.2235 H       
 136 H136          12.7710    -0.5202   -10.3937 H       
 137 H137          12.1945     1.2727    -8.7307 H       
 138 H138          10.0287     2.2933   -10.4026 H       
 139 H139          11.5375    -1.0563    -8.3105 H       
 140 H140           9.9961    -0.7344    -9.1403 H       
 141 H141          10.4931    -2.5412   -10.7643 H       
 142 H142          12.0345    -2.8630    -9.9345 H       
 143 H143          10.8010    -3.3992    -7.8513 H       
 144 H144           9.2596    -3.0773    -8.6811 H       
 145 H145          11.2105    -5.1238    -9.5139 H       
 146 H146           9.7998    -5.4218    -8.6851 H       
 147 H147          15.7603     3.5510   -10.0940 H       
 148 H148          15.8731     4.4845   -11.6053 H       
 149 H149          14.0489     3.0515   -12.5700 H       
 150 H150          14.2875     1.0913   -10.4186 H       
 151 H151          13.4888     5.1288   -11.3854 H       
 152 H152          13.3759     4.1952    -9.8741 H       
 153 H153          14.1013     7.6123    -8.7573 H       
 154 H154          16.9273     1.6214   -15.6415 H       
 155 H155          18.2182     0.4264   -15.3697 H       
 156 H156          18.1783     1.0108   -12.9266 H       
 157 H157          16.5859     3.4115   -13.4047 H       
 158 H158          15.5032     0.3896   -13.9782 H       
 159 H159          16.5798    -1.2928   -16.2863 H       
 160 H160          15.0203    -1.5364   -15.4635 H       
 161 H161          15.3058    -0.0559   -16.4095 H       
 162 H162          17.3554    -0.6539   -12.7018 H       
 163 H163          16.2172    -1.8856   -13.2983 H       
 164 H164          17.7767    -1.6420   -14.1211 H       
 165 H165          23.3184     3.0067   -15.1083 H       
 166 H166          22.6322     1.8567   -13.9357 H       
 167 H167          21.2019     3.8967   -14.2588 H       
 168 H168          21.6343     4.2743   -16.7984 H       
 169 H169          20.1864     1.1969   -14.7142 H       
 170 H170          23.3191     0.7711   -15.9496 H       
@<TRIPOS>BOND
   1    1    6 1
   2    1    7 1
   3    1    2 1
   4    1   88 1
   5    2    4 1
   6    2    3 1
   7    2   89 1
   8    3    5 2
   9    3   11 am
  10    4   29 am
  11    4   90 1
  12    6   91 1
  13    6   92 1
  14    6   93 1
  15    7   94 1
  16    7   95 1
  17    7   96 1
  18    8   13 1
  19    8    9 1
  20    8   97 1
  21    8   98 1
  22    9   11 1
  23    9   10 1
  24    9   99 1
  25   10   12 2
  26   10   42 am
  27   11  100 1
  28   13   14 am
  29   13   15 2
  30   14  101 1
  31   14  102 1
  32   16   21 1
  33   16   17 1
  34   16  103 1
  35   16  104 1
  36   17   18 1
  37   17   19 1
  38   17  105 1
  39   18   20 2
  40   18  106 1
  41   19   30 1
  42   19  107 1
  43   21   22 ar
  44   21   26 ar
  45   22   23 ar
  46   22  108 1
  47   23   24 ar
  48   23  109 1
  49   24   25 ar
  50   24  110 1
  51   25   26 ar
  52   25  111 1
  53   26  112 1
  54   27   32 1
  55   27   28 1
  56   27  113 1
  57   27  114 1
  58   28   29 1
  59   28   30 1
  60   28  115 1
  61   29   31 2
  62   30  116 1
  63   32   33 ar
  64   32   37 ar
  65   33   34 ar
  66   33  117 1
  67   34   35 ar
  68   34  118 1
  69   35   36 ar
  70   35   38 1
  71   36   37 ar
  72   36  119 1
  73   37  120 1
  74   38  121 1
  75   39   44 1
  76   39   40 1
  77   39  122 1
  78   39  123 1
  79   40   41 1
  80   40   42 1
  81   40  124 1
  82   41   43 2
  83   41   50 am
  84   42  125 1
  85   44   45 2
  86   44   46 1
  87   46  126 1
  88   47   52 1
  89   47   48 1
  90   47  127 1
  91   47  128 1
  92   48   50 1
  93   48   49 1
  94   48  129 1
  95   49   51 2
  96   49   59 am
  97   50  130 1
  98   52   53 1
  99   52  131 1
 100   52  132 1
 101   53   54 2
 102   53   55 am
 103   55  133 1
 104   55  134 1
 105   56   61 1
 106   56   57 1
 107   56  135 1
 108   56  136 1
 109   57   59 1
 110   57   58 1
 111   57  137 1
 112   58   60 2
 113   58   68 am
 114   59  138 1
 115   61   62 1
 116   61  139 1
 117   61  140 1
 118   62   63 1
 119   62  141 1
 120   62  142 1
 121   63   64 1
 122   63  143 1
 123   63  144 1
 124   64  145 1
 125   64  146 1
 126   65   70 1
 127   65   66 1
 128   65  147 1
 129   65  148 1
 130   66   68 1
 131   66   67 1
 132   66  149 1
 133   67   69 2
 134   67   77 am
 135   68  150 1
 136   70   71 1
 137   70  151 1
 138   70  152 1
 139   71   72 2
 140   71   73 1
 141   73  153 1
 142   74   79 1
 143   74   75 1
 144   74  154 1
 145   74  155 1
 146   75   77 1
 147   75   76 1
 148   75  156 1
 149   76   78 2
 150   76   85 am
 151   77  157 1
 152   79   80 1
 153   79   81 1
 154   79  158 1
 155   80  159 1
 156   80  160 1
 157   80  161 1
 158   81  162 1
 159   81  163 1
 160   81  164 1
 161   82   87 1
 162   82   83 1
 163   82  165 1
 164   82  166 1
 165   83   85 1
 166   83   84 1
 167   83  167 1
 168   84   86 2
 169   84  168 1
 170   85  169 1
 171   87  170 1

#	End of record

