#	Name: ASD03090212
#	Creating user name:	WinNT
#	Creation time:	15. 06. 2019 20:28

#	Modifying user name:	WinNT
#	Modification time:	15. 06. 2019 20:28

#	Program:	/corina/corina34_cracker 3.40 0067  02.08.2006

@<TRIPOS>MOLECULE
ASD03090212
  49   51    0    0    0
SMALL
NO_CHARGES


@<TRIPOS>ATOM
   1 N1             0.5059     1.3396    -0.6639 N.ar    
   2 C2             0.4155     0.0997    -0.2067 C.ar    
   3 C3             1.5576    -0.6249     0.1094 C.ar    
   4 C4             2.8069    -0.0257    -0.0627 C.ar    
   5 C5             2.8511     1.2869    -0.5493 C.ar    
   6 C6             1.6701     1.9363    -0.8385 C.ar    
   7 C7             4.0519    -0.7582     0.2611 C.2     
   8 N8             6.0549    -3.6402     0.4508 N.pl3   
   9 C9             5.3548    -4.6957    -0.1422 C.ar    
  10 C10            4.5246    -4.4553    -1.2292 C.ar    
  11 C11            3.8326    -5.5003    -1.8147 C.ar    
  12 C12            3.9672    -6.7869    -1.3166 C.ar    
  13 C13            4.7955    -7.0283    -0.2317 C.ar    
  14 C14            5.4935    -5.9862     0.3519 C.ar    
  15 N15            4.2597    -2.0479     0.0878 N.2     
  16 C16            5.4922    -2.3629     0.4882 C.2     
  17 N17            6.0912    -1.2782     0.9239 N.2     
  18 N18            5.1779    -0.2212     0.7812 N.pl3   
  19 C19            5.3985     1.1834     1.1342 C.3     
  20 C20            4.8800     1.4409     2.5504 C.3     
  21 F21            4.9256    -8.2828     0.2525 F       
  22 F22            3.2901    -7.8064    -1.8889 F       
  23 F23            3.0248    -5.2667    -2.8722 F       
  24 C24            5.7015     0.6250     3.5506 C.3     
  25 C25            5.0096     2.9297     2.8782 C.3     
  26 N26           -0.8361    -0.4826    -0.0410 N.pl3   
  27 C27           -0.9452    -1.8534     0.4641 C.3     
  28 C28           -2.4206    -2.2489     0.5513 C.3     
  29 H29            1.4805    -1.6354     0.4826 H       
  30 H30            3.7985     1.7843    -0.6954 H       
  31 H31            1.6979     2.9485    -1.2140 H       
  32 H32            6.9315    -3.7954     0.8361 H       
  33 H33            4.4189    -3.4528    -1.6170 H       
  34 H34            6.1388    -6.1745     1.1972 H       
  35 H35            6.4648     1.4055     1.0918 H       
  36 H36            4.8659     1.8230     0.4304 H       
  37 H37            3.8328     1.1448     2.6133 H       
  38 H38            5.5349    -0.4379     3.3762 H       
  39 H39            6.7598     0.8527     3.4227 H       
  40 H40            5.3952     0.8791     4.5653 H       
  41 H41            4.4243     3.5109     2.1657 H       
  42 H42            4.6401     3.1131     3.8872 H       
  43 H43            6.0567     3.2258     2.8153 H       
  44 H44           -1.6371     0.0188    -0.2599 H       
  45 H45           -0.4264    -2.5324    -0.2127 H       
  46 H46           -0.4940    -1.9126     1.4545 H       
  47 H47           -2.9394    -1.5700     1.2281 H       
  48 H48           -2.8718    -2.1897    -0.4392 H       
  49 H49           -2.5018    -3.2689     0.9271 H       
@<TRIPOS>BOND
   1    1    2 ar
   2    1    6 ar
   3    2    3 ar
   4    2   26 1
   5    3    4 ar
   6    3   29 1
   7    4    5 ar
   8    4    7 1
   9    5    6 ar
  10    5   30 1
  11    6   31 1
  12    7   15 2
  13    7   18 1
  14    8    9 1
  15    8   16 1
  16    8   32 1
  17    9   10 ar
  18    9   14 ar
  19   10   11 ar
  20   10   33 1
  21   11   12 ar
  22   11   23 1
  23   12   13 ar
  24   12   22 1
  25   13   14 ar
  26   13   21 1
  27   14   34 1
  28   15   16 1
  29   16   17 2
  30   17   18 1
  31   18   19 1
  32   19   20 1
  33   19   35 1
  34   19   36 1
  35   20   24 1
  36   20   25 1
  37   20   37 1
  38   24   38 1
  39   24   39 1
  40   24   40 1
  41   25   41 1
  42   25   42 1
  43   25   43 1
  44   26   27 1
  45   26   44 1
  46   27   28 1
  47   27   45 1
  48   27   46 1
  49   28   47 1
  50   28   48 1
  51   28   49 1

#	End of record

