#	Name: ASD02500302
#	Creating user name:	WinNT
#	Creation time:	15. 06. 2019 20:22

#	Modifying user name:	WinNT
#	Modification time:	15. 06. 2019 20:22

#	Program:	/corina/corina34_cracker 3.40 0067  02.08.2006

@<TRIPOS>MOLECULE
ASD02500302
  71   74    0    0    0
SMALL
NO_CHARGES


@<TRIPOS>ATOM
   1 N1            -3.1065     2.6848     1.7956 N.ar    
   2 C2            -3.7235     1.5408     1.9653 C.ar    
   3 C3            -3.7857     0.9188     3.2106 C.ar    
   4 C4            -3.1932     1.5020     4.2941 C.ar    
   5 C5            -2.5310     2.7304     4.1081 C.ar    
   6 C6            -1.8995     3.3895     5.1747 C.ar    
   7 C7            -1.2698     4.5765     4.9541 C.ar    
   8 C8            -1.2440     5.1466     3.6832 C.ar    
   9 C9            -1.8459     4.5350     2.6267 C.ar    
  10 C10           -2.5062     3.3084     2.8144 C.ar    
  11 S11           -1.7986     5.2785     1.0299 S.o2    
  12 O12           -3.1172     5.1913     0.5075 O.2     
  13 O13           -1.1019     6.5078     1.1802 O.2     
  14 N14           -0.8508     4.3181     0.0699 N.am    
  15 C15           -1.2355     3.0094    -0.1999 C.ar    
  16 C16           -2.2765     2.7609    -1.0902 C.ar    
  17 C17           -2.6595     1.4669    -1.3593 C.ar    
  18 C18           -2.0021     0.4013    -0.7376 C.ar    
  19 C19           -0.9571     0.6541     0.1560 C.ar    
  20 C20           -0.5750     1.9502     0.4165 C.ar    
  21 C21           -2.4105    -0.9872    -1.0235 C.2     
  22 O22           -3.5815    -1.2479    -1.2217 O.2     
  23 N23           -1.4856    -1.9667    -1.0649 N.am    
  24 C24           -0.0695    -1.7126    -0.6951 C.3     
  25 C25            0.1695    -2.1655     0.6708 C.3     
  26 N26           -0.2491    -3.5843     0.8069 N.am    
  27 C27           -1.6364    -3.8346     0.9869 C.3     
  28 C28           -2.4111    -4.1834    -0.3258 C.3     
  29 C29           -1.8231    -3.2897    -1.4588 C.3     
  30 C30            0.6471    -4.5898     0.7613 C.2     
  31 C31            0.2330    -5.9646     1.1077 C.ar    
  32 C32            1.1879    -6.9084     1.4964 C.ar    
  33 C33            0.7936    -8.1915     1.8187 C.ar    
  34 C34           -0.5442    -8.5434     1.7574 C.ar    
  35 C35           -1.4947    -7.6119     1.3728 C.ar    
  36 C36           -1.1148    -6.3254     1.0539 C.ar    
  37 O37            1.7965    -4.3652     0.4349 O.2     
  38 Cl38          -1.0324   -10.1590     2.1637 Cl      
  39 Cl39           2.8654    -6.4683     1.5730 Cl      
  40 H40           -4.1967     1.0680     1.1174 H       
  41 H41           -4.3022    -0.0234     3.3189 H       
  42 H42           -3.2319     1.0341     5.2667 H       
  43 H43           -1.9134     2.9577     6.1646 H       
  44 H44           -0.7842     5.0828     5.7752 H       
  45 H45           -0.7386     6.0893     3.5339 H       
  46 H46           -0.0274     4.6685    -0.3042 H       
  47 H47           -2.7842     3.5846    -1.5700 H       
  48 H48           -3.4674     1.2747    -2.0498 H       
  49 H49           -0.4475    -0.1670     0.6381 H       
  50 H50            0.2353     2.1460     1.1031 H       
  51 H51            0.5863    -2.2541    -1.3768 H       
  52 H52            0.1377    -0.6447    -0.7647 H       
  53 H53            1.2309    -2.0766     0.9020 H       
  54 H54           -0.4049    -1.5497     1.3629 H       
  55 H55           -1.7496    -4.6639     1.6852 H       
  56 H56           -2.0918    -2.9497     1.4316 H       
  57 H57           -2.2703    -5.2361    -0.5710 H       
  58 H58           -3.4724    -3.9702    -0.1979 H       
  59 H59           -2.5575    -3.2337    -2.2623 H       
  60 H60           -0.9272    -3.7728    -1.8486 H       
  61 H61            1.5299    -8.9223     2.1189 H       
  62 H62           -2.5365    -7.8929     1.3267 H       
  63 H63           -1.8579    -5.5993     0.7589 H       
  64 C64            9.0368    13.4960    12.3114 C.2     
  65 C65            9.0573    11.9892    12.3031 C.3     
  66 O66           10.0749    14.1143    12.3048 O.2     
  67 O67            7.8654    14.1513    12.3205 O.3     
  68 F68           10.3824    11.5409    12.2880 F       
  69 F69            8.4151    11.5078    13.4490 F       
  70 F70            8.3933    11.5201    11.1646 F       
  71 H71            7.9029    15.1176    12.3256 H       
@<TRIPOS>BOND
   1    1    2 ar
   2    1   10 ar
   3    2    3 ar
   4    2   40 1
   5    3    4 ar
   6    3   41 1
   7    4    5 ar
   8    4   42 1
   9    5    6 ar
  10    5   10 ar
  11    6    7 ar
  12    6   43 1
  13    7    8 ar
  14    7   44 1
  15    8    9 ar
  16    8   45 1
  17    9   10 ar
  18    9   11 1
  19   11   12 2
  20   11   13 2
  21   11   14 am
  22   14   15 1
  23   14   46 1
  24   15   16 ar
  25   15   20 ar
  26   16   17 ar
  27   16   47 1
  28   17   18 ar
  29   17   48 1
  30   18   19 ar
  31   18   21 1
  32   19   20 ar
  33   19   49 1
  34   20   50 1
  35   21   22 2
  36   21   23 am
  37   23   24 1
  38   23   29 1
  39   24   25 1
  40   24   51 1
  41   24   52 1
  42   25   26 1
  43   25   53 1
  44   25   54 1
  45   26   27 1
  46   26   30 am
  47   27   28 1
  48   27   55 1
  49   27   56 1
  50   28   29 1
  51   28   57 1
  52   28   58 1
  53   29   59 1
  54   29   60 1
  55   30   31 1
  56   30   37 2
  57   31   32 ar
  58   31   36 ar
  59   32   33 ar
  60   32   39 1
  61   33   34 ar
  62   33   61 1
  63   34   35 ar
  64   34   38 1
  65   35   36 ar
  66   35   62 1
  67   36   63 1
  68   64   65 1
  69   64   66 2
  70   64   67 1
  71   65   68 1
  72   65   69 1
  73   65   70 1
  74   67   71 1

#	End of record

