#	Name: ASD01912155
#	Creating user name:	WinNT
#	Creation time:	15. 06. 2019 19:59

#	Modifying user name:	WinNT
#	Modification time:	15. 06. 2019 19:59

#	Program:	/corina/corina34_cracker 3.40 0067  02.08.2006

@<TRIPOS>MOLECULE
ASD01912155
  47   51    0    0    0
SMALL
NO_CHARGES


@<TRIPOS>ATOM
   1 C1            -0.0184     1.5028     0.0103 C.3     
   2 C2             0.0021    -0.0041     0.0020 C.2     
   3 N3             0.5289    -0.7598    -0.9158 N.2     
   4 O4             0.3834    -1.9309    -0.6360 O.3     
   5 C5            -0.2737    -2.0393     0.5289 C.2     
   6 N6            -0.5150    -0.8087     0.9434 N.2     
   7 C7            -0.6501    -3.2929     1.2175 C.ar    
   8 C8            -0.3155    -4.5211     0.6483 C.ar    
   9 C9            -0.6741    -5.6865     1.3037 C.ar    
  10 C10           -1.3569    -5.5856     2.5092 C.ar    
  11 C11           -1.6571    -4.3296     3.0171 C.ar    
  12 N12           -1.2989    -3.2388     2.3750 N.ar    
  13 F13           -1.7253    -6.6989     3.1801 F       
  14 C14            1.4168     2.0358    -0.0005 C.3     
  15 C15            1.3992     3.5572     0.1051 C.3     
  16 C16            0.6512     4.1818    -1.0628 C.3     
  17 N17           -0.5842     3.4419    -1.3628 N.am    
  18 C18           -0.7418     2.0133    -1.2387 C.3     
  19 C19            1.6133     4.0516    -2.3356 C.3     
  20 C20            0.6206     4.3946    -3.4933 C.3     
  21 C21           -0.1262     5.6271    -3.1126 C.ar    
  22 C22           -1.1595     5.6335    -2.2310 C.ar    
  23 C23           -1.6049     4.2617    -1.7880 C.2     
  24 O24           -2.7684     3.9099    -1.8047 O.2     
  25 C25            0.2617     6.8438    -3.6737 C.ar    
  26 C26           -0.3807     8.0073    -3.2839 C.ar    
  27 C27           -1.3974     7.9919    -2.3407 C.ar    
  28 C28           -1.8004     6.7826    -1.7961 C.ar    
  29 F29           -0.0082     9.1835    -3.8344 F       
  30 H30           -0.5329     1.8564     0.9038 H       
  31 H31            0.2157    -4.5626    -0.2911 H       
  32 H32           -0.4289    -6.6523     0.8870 H       
  33 H33           -2.1881    -4.2466     3.9539 H       
  34 H34            1.9648     1.6196     0.8448 H       
  35 H35            1.9059     1.7422    -0.9293 H       
  36 H36            0.9116     3.8449     1.0365 H       
  37 H37            2.4247     3.9266     0.1111 H       
  38 H38            0.4227     5.2259    -0.8491 H       
  39 H39           -0.3252     1.5267    -2.1206 H       
  40 H40           -1.8023     1.7727    -1.1649 H       
  41 H41            2.4273     4.7750    -2.2886 H       
  42 H42            1.9977     3.0365    -2.4354 H       
  43 H43            1.1760     4.5705    -4.4145 H       
  44 H44           -0.0780     3.5701    -3.6356 H       
  45 H45            1.0557     6.8783    -4.4049 H       
  46 H46           -1.8705     8.9130    -2.0337 H       
  47 H47           -2.5873     6.7374    -1.0578 H       
@<TRIPOS>BOND
   1    1    2 1
   2    1   14 1
   3    1   18 1
   4    1   30 1
   5    2    3 2
   6    2    6 1
   7    3    4 1
   8    4    5 1
   9    5    6 2
  10    5    7 1
  11    7    8 ar
  12    7   12 ar
  13    8    9 ar
  14    8   31 1
  15    9   10 ar
  16    9   32 1
  17   10   11 ar
  18   10   13 1
  19   11   12 ar
  20   11   33 1
  21   14   15 1
  22   14   34 1
  23   14   35 1
  24   15   16 1
  25   15   36 1
  26   15   37 1
  27   16   17 1
  28   16   19 1
  29   16   38 1
  30   17   18 1
  31   17   23 am
  32   18   39 1
  33   18   40 1
  34   19   20 1
  35   19   41 1
  36   19   42 1
  37   20   21 1
  38   20   43 1
  39   20   44 1
  40   21   22 ar
  41   21   25 ar
  42   22   23 1
  43   22   28 ar
  44   23   24 2
  45   25   26 ar
  46   25   45 1
  47   26   27 ar
  48   26   29 1
  49   27   28 ar
  50   27   46 1
  51   28   47 1

#	End of record

