#	Name: ASD01028558
#	Creating user name:	WinNT
#	Creation time:	15. 06. 2019 18:57

#	Modifying user name:	WinNT
#	Modification time:	15. 06. 2019 18:57

#	Program:	/corina/corina34_cracker 3.40 0067  02.08.2006

@<TRIPOS>MOLECULE
ASD01028558
  55   60    0    0    0
SMALL
NO_CHARGES


@<TRIPOS>ATOM
   1 N1            -0.0169     1.3921     0.0097 N.2     
   2 N2             0.0021    -0.0041     0.0020 N.pl3   
   3 C3             1.1071     2.0741     0.0026 C.2     
   4 C4             2.3532     1.4124    -0.0128 C.2     
   5 C5             2.4037     0.0542    -0.0206 C.2     
   6 C6             1.2008    -0.6771    -0.0130 C.2     
   7 N7             0.9145    -1.9687    -0.0176 N.2     
   8 N8            -0.3638    -2.1208    -0.0065 N.2     
   9 C9            -0.9586    -0.9539     0.0061 C.2     
  10 C10           -2.4463    -0.7141     0.0218 C.3     
  11 N11           -2.9153    -0.6451     1.4080 N.pl3   
  12 C12           -4.2594    -0.4297     1.6756 C.ar    
  13 C13           -5.1757    -0.2770     0.6481 C.ar    
  14 C14           -6.5150    -0.0625     0.9446 C.ar    
  15 N15           -6.9461     0.0016     2.1831 N.ar    
  16 C16           -6.1165    -0.1372     3.2228 C.ar    
  17 C17           -4.7367    -0.3651     3.0081 C.ar    
  18 C18           -6.5938    -0.0661     4.5444 C.ar    
  19 C19           -5.6847    -0.2176     5.5741 C.ar    
  20 C20           -4.3326    -0.4346     5.2788 C.ar    
  21 N21           -3.9060    -0.5043     4.0423 N.ar    
  22 N22           -6.1112    -0.1543     6.9009 N.3     
  23 C23            1.0647     3.5571     0.0105 C.ar    
  24 C24           -0.1602     4.2210     0.0253 C.ar    
  25 C25            0.9854     6.3277     0.0257 C.ar    
  26 C26            2.2053     5.6718     0.0168 C.ar    
  27 C27            2.2496     4.2900     0.0089 C.ar    
  28 C28           -0.1950     5.6031     0.0331 C.ar    
  29 F29           -1.3821     6.2479     0.0474 F       
  30 F30            3.3537     6.3835     0.0092 F       
  31 C31           -4.9840    -0.3406     7.8261 C.3     
  32 C32           -7.1684    -1.1420     7.1621 C.3     
  33 C33           -7.6476    -0.9980     8.6090 C.3     
  34 O34           -6.5333    -1.1510     9.4924 O.3     
  35 C35           -5.4852    -0.2047     9.2663 C.3     
  36 H36            3.2683     1.9860    -0.0188 H       
  37 H37            3.3547    -0.4576    -0.0328 H       
  38 H38           -2.6682     0.2256    -0.4841 H       
  39 H39           -2.9515    -1.5317    -0.4925 H       
  40 H40           -2.2860    -0.7501     2.1386 H       
  41 H41           -4.8494    -0.3244    -0.3803 H       
  42 H42           -7.2204     0.0552     0.1353 H       
  43 H43           -7.6409     0.1024     4.7483 H       
  44 H44           -3.6273    -0.5518     6.0883 H       
  45 H45           -1.0811     3.6569     0.0303 H       
  46 H46            0.9546     7.4072     0.0322 H       
  47 H47            3.2013     3.7794     0.0020 H       
  48 H48           -4.5550    -1.3323     7.6821 H       
  49 H49           -4.2247     0.4168     7.6319 H       
  50 H50           -8.0035    -0.9695     6.4833 H       
  51 H51           -6.7743    -2.1465     7.0075 H       
  52 H52           -8.0905    -0.0120     8.7493 H       
  53 H53           -8.3909    -1.7656     8.8244 H       
  54 H54           -4.6645    -0.3985     9.9571 H       
  55 H55           -5.8652     0.8044     9.4257 H       
@<TRIPOS>BOND
   1    1    2 1
   2    1    3 2
   3    2    6 1
   4    2    9 1
   5    3    4 1
   6    3   23 1
   7    4    5 2
   8    4   36 1
   9    5    6 1
  10    5   37 1
  11    6    7 2
  12    7    8 1
  13    8    9 2
  14    9   10 1
  15   10   11 1
  16   10   38 1
  17   10   39 1
  18   11   12 1
  19   11   40 1
  20   12   13 ar
  21   12   17 ar
  22   13   14 ar
  23   13   41 1
  24   14   15 ar
  25   14   42 1
  26   15   16 ar
  27   16   17 ar
  28   16   18 ar
  29   17   21 ar
  30   18   19 ar
  31   18   43 1
  32   19   20 ar
  33   19   22 1
  34   20   21 ar
  35   20   44 1
  36   22   31 1
  37   22   32 1
  38   23   24 ar
  39   23   27 ar
  40   24   28 ar
  41   24   45 1
  42   25   26 ar
  43   25   28 ar
  44   25   46 1
  45   26   27 ar
  46   26   30 1
  47   27   47 1
  48   28   29 1
  49   31   35 1
  50   31   48 1
  51   31   49 1
  52   32   33 1
  53   32   50 1
  54   32   51 1
  55   33   34 1
  56   33   52 1
  57   33   53 1
  58   34   35 1
  59   35   54 1
  60   35   55 1

#	End of record

