#	Name: ASD00570013
#	Creating user name:	WinNT
#	Creation time:	15. 06. 2019 18:36

#	Modifying user name:	WinNT
#	Modification time:	15. 06. 2019 18:36

#	Program:	/corina/corina34_cracker 3.40 0067  02.08.2006

@<TRIPOS>MOLECULE
ASD00570013
  67   70    0    0    0
SMALL
NO_CHARGES


@<TRIPOS>ATOM
   1 C1             0.5742     0.0511    -3.0444 C.ar    
   2 C2             0.8151    -1.2920    -2.7849 C.ar    
   3 C3             1.9676    -1.6915    -2.1475 C.ar    
   4 C4             2.9089    -0.7356    -1.7555 C.ar    
   5 C5             2.6603     0.6306    -2.0214 C.ar    
   6 C6             1.4862     1.0125    -2.6683 C.ar    
   7 N7             4.0546    -1.0872    -1.1260 N.2     
   8 C8             4.9370    -0.1915    -0.7580 C.2     
   9 N9             4.7743     1.1488    -0.9764 N.am    
  10 C10            3.6663     1.6140    -1.5983 C.2     
  11 C11            5.7626     2.0469    -0.5533 C.ar    
  12 C12            5.9989     2.2331     0.8018 C.ar    
  13 C13            6.9750     3.1203     1.2161 C.ar    
  14 C14            7.7152     3.8221     0.2810 C.ar    
  15 C15            7.4812     3.6380    -1.0694 C.ar    
  16 C16            6.5117     2.7485    -1.4890 C.ar    
  17 Cl17           7.2719     3.3543     2.9104 Cl      
  18 S18            6.4007    -0.7387     0.0561 S.3     
  19 C19            6.0138    -2.4961     0.2507 C.3     
  20 C20            7.2944    -3.2844     0.3497 C.2     
  21 C21            5.1902    -2.6991     1.5240 C.3     
  22 C22            3.8332    -2.0095     1.3690 C.3     
  23 C23            2.9633    -2.3155     2.5898 C.3     
  24 N24            7.3133    -4.5859    -0.0001 N.am    
  25 C25            8.5541    -5.3675     0.0910 C.3     
  26 C26            8.8226    -6.0263    -1.2658 C.3     
  27 C27            7.5962    -6.8403    -1.6847 C.3     
  28 C28            6.3896    -5.9101    -1.8298 C.3     
  29 C29            6.0922    -5.2515    -0.4741 C.3     
  30 O30            8.3079    -2.7477     0.7443 O.2     
  31 C31            7.8694    -7.5174    -3.0030 C.2     
  32 N32            6.9249    -8.2933    -3.5706 N.am    
  33 O33            8.9394    -7.3641    -3.5532 O.2     
  34 O34            3.5083     2.8042    -1.7991 O.2     
  35 C35            1.6063    -1.6258     2.4348 C.3     
  36 C36            2.2133    -3.1527    -1.8730 C.3     
  37 H37           -0.3343     0.3439    -3.5497 H       
  38 H38            0.0887    -2.0321    -3.0866 H       
  39 H39            1.2927     2.0551    -2.8731 H       
  40 H40            5.4208     1.6859     1.5317 H       
  41 H41            8.4768     4.5152     0.6065 H       
  42 H42            8.0603     4.1874    -1.7969 H       
  43 H43            6.3300     2.6052    -2.5439 H       
  44 H44            5.4414    -2.8397    -0.6110 H       
  45 H45            5.0388    -3.7653     1.6926 H       
  46 H46            5.7216    -2.2688     2.3728 H       
  47 H47            3.9801    -0.9325     1.2882 H       
  48 H48            3.3394    -2.3773     0.4695 H       
  49 H49            2.8164    -3.3925     2.6705 H       
  50 H50            3.4571    -1.9477     3.4892 H       
  51 H51            9.3833    -4.7082     0.3475 H       
  52 H52            8.4460    -6.1367     0.8556 H       
  53 H53            9.0201    -5.2561    -2.0114 H       
  54 H54            9.6868    -6.6857    -1.1854 H       
  55 H55            7.3844    -7.5942    -0.9265 H       
  56 H56            6.6100    -5.1411    -2.5701 H       
  57 H57            5.5222    -6.4868    -2.1508 H       
  58 H58            5.7832    -6.0128     0.2421 H       
  59 H59            5.2981    -4.5143    -0.5924 H       
  60 H60            6.0692    -8.4160    -3.1306 H       
  61 H61            7.1008    -8.7292    -4.4191 H       
  62 H62            0.9865    -1.8438     3.3045 H       
  63 H63            1.7532    -0.5488     2.3541 H       
  64 H64            1.1125    -1.9936     1.5354 H       
  65 H65            2.6588    -3.6177    -2.7524 H       
  66 H66            2.8912    -3.2543    -1.0255 H       
  67 H67            1.2675    -3.6432    -1.6425 H       
@<TRIPOS>BOND
   1    1    2 ar
   2    1    6 ar
   3    1   37 1
   4    2    3 ar
   5    2   38 1
   6    3    4 ar
   7    3   36 1
   8    4    5 ar
   9    4    7 1
  10    5    6 ar
  11    5   10 1
  12    6   39 1
  13    7    8 2
  14    8    9 1
  15    8   18 1
  16    9   10 am
  17    9   11 1
  18   10   34 2
  19   11   12 ar
  20   11   16 ar
  21   12   13 ar
  22   12   40 1
  23   13   14 ar
  24   13   17 1
  25   14   15 ar
  26   14   41 1
  27   15   16 ar
  28   15   42 1
  29   16   43 1
  30   18   19 1
  31   19   20 1
  32   19   21 1
  33   19   44 1
  34   20   24 am
  35   20   30 2
  36   21   22 1
  37   21   45 1
  38   21   46 1
  39   22   23 1
  40   22   47 1
  41   22   48 1
  42   23   35 1
  43   23   49 1
  44   23   50 1
  45   24   25 1
  46   24   29 1
  47   25   26 1
  48   25   51 1
  49   25   52 1
  50   26   27 1
  51   26   53 1
  52   26   54 1
  53   27   28 1
  54   27   31 1
  55   27   55 1
  56   28   29 1
  57   28   56 1
  58   28   57 1
  59   29   58 1
  60   29   59 1
  61   31   32 am
  62   31   33 2
  63   32   60 1
  64   32   61 1
  65   35   62 1
  66   35   63 1
  67   35   64 1
  68   36   65 1
  69   36   66 1
  70   36   67 1

#	End of record

