#	Name: ASD03910022
#	Creating user name:	WinNT
#	Creation time:	15. 06. 2019 20:47

#	Modifying user name:	WinNT
#	Modification time:	15. 06. 2019 20:47

#	Program:	/corina/corina34_cracker 3.40 0067  02.08.2006

@<TRIPOS>MOLECULE
ASD03910022
  53   55    0    0    0
SMALL
NO_CHARGES


@<TRIPOS>ATOM
   1 C1            -0.6066    -0.5089     0.5209 C.ar    
   2 C2             0.3300     0.0463     1.3733 C.ar    
   3 C3             0.0528     1.2290     2.0341 C.ar    
   4 C4            -1.1615     1.8592     1.8448 C.ar    
   5 C5            -2.1043     1.3042     0.9893 C.ar    
   6 C6            -1.8203     0.1196     0.3225 C.ar    
   7 N7            -3.3354     1.9403     0.7953 N.am    
   8 C8            -3.4044     3.2862     0.7854 C.2     
   9 C9            -4.7099     3.9715     0.4737 C.3     
  10 O10           -2.4158     3.9459     1.0273 O.2     
  11 C11           -4.5184     5.4654     0.5274 C.ar    
  12 C12           -4.1496     6.1553    -0.6127 C.ar    
  13 C13           -3.9734     7.5246    -0.5662 C.ar    
  14 C14           -4.1669     8.2076     0.6258 C.ar    
  15 C15           -4.5369     7.5130     1.7684 C.ar    
  16 C16           -4.7173     6.1444     1.7152 C.ar    
  17 O17           -3.9938     9.5546     0.6743 O.3     
  18 C18           -4.1832    10.1879     1.9413 C.3     
  19 C19           -5.5560     9.8592     2.4689 C.2     
  20 C20           -0.3002    -1.7979    -0.1972 C.3     
  21 C21            1.0764     1.8305     2.9622 C.3     
  22 O22           -5.7306     9.7263     3.6571 O.2     
  23 O23           -6.5847     9.7140     1.6190 O.3     
  24 C24           -3.1222     9.6891     2.9271 C.3     
  25 C25           -1.7355    10.0945     2.4209 C.3     
  26 O26           -1.6830    11.5141     2.2653 O.3     
  27 C27           -2.6209    12.0325     1.3199 C.3     
  28 C28           -4.0454    11.7051     1.7815 C.3     
  29 H29            1.2800    -0.4450     1.5236 H       
  30 H30           -1.3777     2.7825     2.3617 H       
  31 H31           -2.5513    -0.3143    -0.3437 H       
  32 H32           -4.1392     1.4125     0.6680 H       
  33 H33           -5.0424     3.6834    -0.5235 H       
  34 H34           -5.4600     3.6748     1.2067 H       
  35 H35           -3.9988     5.6231    -1.5403 H       
  36 H36           -3.6850     8.0630    -1.4569 H       
  37 H37           -4.6881     8.0424     2.6975 H       
  38 H38           -5.0053     5.6033     2.6044 H       
  39 H39           -0.6249    -2.6402     0.4137 H       
  40 H40           -0.8273    -1.8165    -1.1512 H       
  41 H41            0.7730    -1.8693    -0.3736 H       
  42 H42            1.7217     2.5070     2.4019 H       
  43 H43            0.5694     2.3835     3.7529 H       
  44 H44            1.6784     1.0360     3.4031 H       
  45 H45           -7.4462     9.5033     2.0043 H       
  46 H46           -3.2970    10.1344     3.9065 H       
  47 H47           -3.1787     8.6033     3.0044 H       
  48 H48           -0.9795     9.7795     3.1401 H       
  49 H49           -1.5452     9.6163     1.4601 H       
  50 H50           -2.5026    13.1136     1.2459 H       
  51 H51           -2.4421    11.5796     0.3447 H       
  52 H52           -4.7597    12.0613     1.0393 H       
  53 H53           -4.2392    12.1912     2.7376 H       
@<TRIPOS>BOND
   1    1    2 ar
   2    1   20 1
   3    1    6 ar
   4    2    3 ar
   5    2   29 1
   6    3    4 ar
   7    3   21 1
   8    4    5 ar
   9    4   30 1
  10    5    6 ar
  11    5    7 1
  12    6   31 1
  13    7    8 am
  14    7   32 1
  15    8    9 1
  16    8   10 2
  17    9   11 1
  18    9   33 1
  19    9   34 1
  20   11   12 ar
  21   11   16 ar
  22   12   13 ar
  23   12   35 1
  24   13   14 ar
  25   13   36 1
  26   14   15 ar
  27   14   17 1
  28   15   16 ar
  29   15   37 1
  30   16   38 1
  31   17   18 1
  32   18   19 1
  33   18   24 1
  34   18   28 1
  35   19   22 2
  36   19   23 1
  37   20   39 1
  38   20   40 1
  39   20   41 1
  40   21   42 1
  41   21   43 1
  42   21   44 1
  43   23   45 1
  44   24   25 1
  45   24   46 1
  46   24   47 1
  47   25   26 1
  48   25   48 1
  49   25   49 1
  50   26   27 1
  51   27   28 1
  52   27   50 1
  53   27   51 1
  54   28   52 1
  55   28   53 1

#	End of record

