#	Name: ASD06590050
#	Creating user name:	WinNT
#	Creation time:	15. 06. 2019 21:06

#	Modifying user name:	WinNT
#	Modification time:	15. 06. 2019 21:06

#	Program:	/corina/corina34_cracker 3.40 0067  02.08.2006

@<TRIPOS>MOLECULE
ASD06590050
 267  266    0    0    0
SMALL
NO_CHARGES


@<TRIPOS>ATOM
   1 C1            -7.6238    17.0908   -19.5013 C.2     
   2 O2            -8.1523    16.4676   -20.3976 O.2     
   3 N3            -5.6142    16.9456   -20.8538 N.am    
   4 C4            -6.1644    17.4546   -19.5951 C.3     
   5 C5            -6.0144    18.9767   -19.5516 C.3     
   6 O6            -6.8153    19.5638   -20.5791 O.3     
   7 C7           -10.3307    17.6427   -17.0433 C.2     
   8 O8            -9.6188    18.2505   -16.2721 O.2     
   9 N9            -8.3431    17.4628   -18.4240 N.am    
  10 C10           -9.7634    17.1143   -18.3355 C.3     
  11 C11          -13.3791    17.1301   -15.0920 C.2     
  12 O12          -13.7372    16.2053   -15.7901 O.2     
  13 N13          -11.6292    17.4398   -16.7445 N.am    
  14 C14          -12.1807    17.9535   -15.4883 C.3     
  15 C15          -12.6034    19.4120   -15.6755 C.3     
  16 C16          -11.3673    20.2692   -15.9553 C.3     
  17 C17          -11.7900    21.7277   -16.1425 C.3     
  18 N18          -10.6065    22.5485   -16.4105 N.pl3   
  19 C19          -10.7400    23.9017   -16.6137 C.2     
  20 N20           -9.6870    24.6320   -16.8521 N.2     
  21 N21          -11.9842    24.4845   -16.5654 N.pl3   
  22 C22          -16.1266    17.4455   -12.7014 C.2     
  23 O23          -15.7090    18.4546   -12.1741 O.2     
  24 N24          -14.0529    17.4215   -13.9617 N.am    
  25 C25          -15.2179    16.6211   -13.5764 C.3     
  26 C26          -14.7540    15.3830   -12.8065 C.3     
  27 C27          -15.9740    14.5968   -12.3222 C.3     
  28 C28          -13.9088    14.4982   -13.7250 C.3     
  29 C29          -19.2915    16.8804   -10.9911 C.2     
  30 O30          -19.4825    15.7915   -11.4897 O.2     
  31 N31          -17.4035    17.0614   -12.5049 N.am    
  32 C32          -18.2585    17.8073   -11.5783 C.3     
  33 C33          -18.9589    18.9406   -12.3306 C.3     
  34 C34          -19.8523    19.7193   -11.3629 C.3     
  35 C35          -18.9823    20.4224   -10.3191 C.3     
  36 C36          -20.6590    20.7615   -12.1401 C.3     
  37 C37          -22.0700    17.2247    -8.6406 C.2     
  38 O38          -21.9233    18.4256    -8.5567 O.2     
  39 N39          -20.0032    17.2616    -9.9119 N.am    
  40 C40          -21.0588    16.3924    -9.3862 C.3     
  41 C41          -20.4452    15.3627    -8.4354 C.3     
  42 C42          -24.8229    16.5854    -6.3220 C.2     
  43 O43          -24.6382    15.3868    -6.3072 O.2     
  44 N44          -23.1373    16.6344    -8.0672 N.am    
  45 C45          -24.1203    17.4434    -7.3424 C.3     
  46 C46          -25.1457    18.0051    -8.3293 C.3     
  47 C47          -24.4294    18.8555    -9.3803 C.3     
  48 O48          -25.8276    16.9268    -8.9730 O.3     
  49 C49          -27.6572    17.0343    -4.0575 C.2     
  50 O50          -27.8898    18.1473    -4.4795 O.2     
  51 N51          -25.6564    17.1499    -5.4259 N.am    
  52 C52          -26.4126    16.3069    -4.4965 C.3     
  53 C53          -25.5477    15.9925    -3.2741 C.3     
  54 C54          -24.3472    15.1465    -3.7028 C.3     
  55 C55          -23.4823    14.8321    -2.4805 C.3     
  56 C56          -22.2818    13.9860    -2.9091 C.3     
  57 N57          -21.4514    13.6842    -1.7355 N.3     
  58 C58          -30.2875    16.5634    -1.5458 C.2     
  59 O59          -29.8122    15.5480    -1.0832 O.2     
  60 N60          -28.5120    16.4481    -3.1960 N.am    
  61 C61          -29.7748    17.1073    -2.8544 C.3     
  62 C62          -30.8034    16.8409    -3.9553 C.3     
  63 C63          -32.1204    17.5345    -3.6015 C.3     
  64 C64          -31.9138    19.0505    -3.5990 C.3     
  65 C65          -33.1848    17.1667    -4.6372 C.3     
  66 C66          -33.2225    17.1397     0.5559 C.2     
  67 O67          -33.7262    17.8869    -0.2558 O.2     
  68 N68          -31.2742    17.2054    -0.8894 N.am    
  69 C69          -31.8137    16.6449     0.3519 C.3     
  70 C70          -30.9431    17.0846     1.5307 C.3     
  71 C71          -29.5457    16.4784     1.3867 C.3     
  72 C72          -28.6750    16.9180     2.5655 C.3     
  73 N73          -27.3370    16.3376     2.4276 N.pl3   
  74 C74          -26.3750    16.5950     3.3755 C.2     
  75 N75          -25.1846    16.0786     3.2528 N.2     
  76 N76          -26.6687    17.3970     4.4528 N.pl3   
  77 C77          -35.6289    17.1984     3.3069 C.2     
  78 O78          -34.8061    16.8103     4.1089 O.2     
  79 N79          -33.9226    16.7518     1.6402 N.am    
  80 C80          -35.2921    17.2327     1.8385 C.3     
  81 C81          -36.2642    16.3345     1.0711 C.3     
  82 C82          -36.0026    16.4656    -0.4307 C.3     
  83 C83          -36.9601    15.5808    -1.1866 C.2     
  84 O84          -37.7688    14.9138    -0.5858 O.2     
  85 O85          -36.9146    15.5338    -2.5272 O.3     
  86 C86          -38.6651    17.4519     5.3269 C.2     
  87 O87          -39.3852    17.4092     4.3520 O.2     
  88 N88          -36.8446    17.5988     3.7290 N.am    
  89 C89          -37.1721    17.5654     5.1566 C.3     
  90 C90          -36.6790    18.8513     5.8232 C.3     
  91 C91          -35.1669    18.9794     5.6282 C.3     
  92 O92          -37.3326    19.9757     5.2310 O.3     
  93 C93          -41.0544    18.3488     7.8062 C.2     
  94 O94          -40.2069    19.0024     8.3766 O.2     
  95 N95          -39.2002    17.3977     6.5628 N.am    
  96 C96          -40.6553    17.3718     6.7305 C.3     
  97 C97          -41.0975    15.9631     7.1315 C.3     
  98 C98          -40.7650    14.9976     6.0231 C.2     
  99 O99          -40.3065    15.4086     4.9782 O.2     
 100 N100         -40.9771    13.6776     6.1930 N.am    
 101 C101         -44.0551    19.0202     9.7832 C.2     
 102 O102         -44.6103    18.0254     9.3808 O.2     
 103 N103         -42.3533    18.4963     8.1344 N.am    
 104 C104         -42.7413    19.4461     9.1801 C.3     
 105 C105         -42.8881    20.8424     8.5720 C.3     
 106 O106         -44.6084    19.7461    10.7674 O.3     
 107 C107          -4.2951    16.6892   -20.9578 C.2     
 108 O108          -3.5637    16.8799   -20.0094 O.2     
 109 C109          10.8560    11.0109   -30.4124 C.3     
 110 C110          10.2814    11.5426   -29.0979 C.3     
 111 C111           8.7724    11.7473   -29.2467 C.3     
 112 C112           8.1978    12.2789   -27.9322 C.3     
 113 C113           6.6888    12.4836   -28.0810 C.3     
 114 C114           6.1142    13.0153   -26.7665 C.3     
 115 C115           4.6053    13.2200   -26.9153 C.3     
 116 C116           4.0306    13.7517   -25.6008 C.3     
 117 C117           2.5217    13.9564   -25.7496 C.3     
 118 C118           1.9470    14.4880   -24.4351 C.3     
 119 C119           0.4381    14.6927   -24.5840 C.3     
 120 C120          -0.1366    15.2244   -23.2694 C.3     
 121 C121          -1.6455    15.4291   -23.4183 C.3     
 122 C122          -2.2202    15.9608   -22.1037 C.3     
 123 C123          -3.7291    16.1655   -22.2526 C.3     
 124 H124          -6.1992    16.7930   -21.6124 H       
 125 H125          -5.6251    17.0123   -18.7576 H       
 126 H126          -6.3419    19.3463   -18.5799 H       
 127 H127          -4.9693    19.2434   -19.7084 H       
 128 H128          -6.7688    20.5292   -20.6107 H       
 129 H129          -7.9205    17.9612   -17.7071 H       
 130 H130          -9.8740    16.0303   -18.3646 H       
 131 H131         -10.2990    17.5568   -19.1754 H       
 132 H132         -12.1985    16.9537   -17.3613 H       
 133 H133         -11.4233    17.8921   -14.7069 H       
 134 H134         -13.2941    19.4852   -16.5155 H       
 135 H135         -13.0943    19.7671   -14.7694 H       
 136 H136         -10.6766    20.1960   -15.1153 H       
 137 H137         -10.8764    19.9140   -16.8614 H       
 138 H138         -12.4807    21.8009   -16.9825 H       
 139 H139         -12.2809    22.0829   -15.2364 H       
 140 H140          -9.7286    22.1373   -16.4445 H       
 141 H141          -9.7813    25.5867   -16.9955 H       
 142 H142         -12.7679    23.9411   -16.3880 H       
 143 H143         -12.0785    25.4392   -16.7088 H       
 144 H144         -13.7665    18.1611   -13.4033 H       
 145 H145         -15.7579    16.3113   -14.4711 H       
 146 H146         -14.1565    15.6914   -11.9486 H       
 147 H147         -16.5689    14.2843   -13.1804 H       
 148 H148         -15.6435    13.7173   -11.7696 H       
 149 H149         -16.5786    15.2287   -11.6716 H       
 150 H150         -13.0397    15.0583   -14.0700 H       
 151 H151         -13.5783    13.6162   -13.1765 H       
 152 H152         -14.5063    14.1898   -14.5829 H       
 153 H153         -17.7563    16.2910   -12.9770 H       
 154 H154         -17.6484    18.2254   -10.7775 H       
 155 H155         -18.2118    19.6112   -12.7549 H       
 156 H156         -19.5687    18.5225   -13.1316 H       
 157 H157         -20.5339    19.0307   -10.8636 H       
 158 H158         -18.3607    19.6865    -9.8090 H       
 159 H159         -18.3454    21.1568   -10.8121 H       
 160 H160         -19.6210    20.9247    -9.5925 H       
 161 H161         -21.2789    20.2607   -12.8837 H       
 162 H162         -21.2955    21.3163   -11.4507 H       
 163 H163         -19.9774    21.4501   -12.6394 H       
 164 H164         -19.8164    18.1115    -9.4832 H       
 165 H165         -21.5500    15.8773   -10.2117 H       
 166 H166         -21.2306    14.7160    -8.0442 H       
 167 H167         -19.7138    14.7607    -8.9746 H       
 168 H168         -19.9540    15.8778    -7.6098 H       
 169 H169         -23.2546    15.6738    -8.1343 H       
 170 H170         -23.6130    18.2659    -6.8381 H       
 171 H171         -25.8665    18.6220    -7.7925 H       
 172 H172         -23.7753    18.2201    -9.9774 H       
 173 H173         -25.1666    19.3290   -10.0286 H       
 174 H174         -23.8358    19.6230    -8.8837 H       
 175 H175         -26.3049    16.3450    -8.3658 H       
 176 H176         -25.7557    18.1144    -5.3964 H       
 177 H177         -26.6910    15.3775    -4.9933 H       
 178 H178         -25.1959    16.9232    -2.8289 H       
 179 H179         -26.1387    15.4407    -2.5432 H       
 180 H180         -24.6990    14.2158    -4.1480 H       
 181 H181         -23.7562    15.6983    -4.4338 H       
 182 H182         -23.1305    15.7627    -2.0352 H       
 183 H183         -24.0733    14.2802    -1.7495 H       
 184 H184         -22.6336    13.0554    -3.3544 H       
 185 H185         -21.6908    14.5379    -3.6401 H       
 186 H186         -20.6513    13.1258    -1.9926 H       
 187 H187         -21.1659    14.5310    -1.2671 H       
 188 H188         -28.2909    15.5896    -2.8022 H       
 189 H189         -29.6110    18.1810    -2.7624 H       
 190 H190         -30.4307    17.2304    -4.9027 H       
 191 H191         -30.9705    15.7675    -4.0444 H       
 192 H192         -32.4476    17.2108    -2.6135 H       
 193 H193         -32.8719    19.5475    -3.4472 H       
 194 H194         -31.2316    19.3229    -2.7937 H       
 195 H195         -31.4907    19.3612    -4.5542 H       
 196 H196         -33.3320    16.0866    -4.6390 H       
 197 H197         -34.1231    17.6608    -4.3851 H       
 198 H198         -32.8577    17.4904    -5.6252 H       
 199 H199         -31.6270    18.0386    -1.2390 H       
 200 H200         -31.8164    15.5568     0.2882 H       
 201 H201         -30.8681    18.1719     1.5414 H       
 202 H202         -31.3933    16.7423     2.4625 H       
 203 H203         -29.6206    15.3910     1.3760 H       
 204 H204         -29.0954    16.8207     0.4549 H       
 205 H205         -28.6001    18.0054     2.5762 H       
 206 H206         -29.1253    16.5757     3.4973 H       
 207 H207         -27.1298    15.7718     1.6675 H       
 208 H208         -24.5059    16.2601     3.9216 H       
 209 H209         -27.5547    17.7813     4.5441 H       
 210 H210         -25.9900    17.5785     5.1216 H       
 211 H211         -33.5197    16.1541     2.2894 H       
 212 H212         -35.3749    18.2554     1.4706 H       
 213 H213         -36.1192    15.2981     1.3760 H       
 214 H214         -37.2883    16.6374     1.2893 H       
 215 H215         -36.1477    17.5020    -0.7356 H       
 216 H216         -34.9786    16.1626    -0.6489 H       
 217 H217         -37.5487    14.9517    -2.9679 H       
 218 H218         -37.5028    17.9092     3.0876 H       
 219 H219         -36.6871    16.7066     5.6206 H       
 220 H220         -36.9065    18.8185     6.8887 H       
 221 H221         -34.9465    19.1037     4.5679 H       
 222 H222         -34.8017    19.8460     6.1792 H       
 223 H223         -34.6753    18.0798     5.9985 H       
 224 H224         -38.2957    19.9609     5.3168 H       
 225 H225         -38.6218    17.3759     7.3412 H       
 226 H226         -41.1343    17.6495     5.7916 H       
 227 H227         -40.5775    15.6643     8.0417 H       
 228 H228         -42.1729    15.9564     7.3086 H       
 229 H229         -41.3437    13.3489     7.0288 H       
 230 H230         -40.7631    13.0562     5.4796 H       
 231 H231         -43.0312    17.9736     7.6782 H       
 232 H232         -41.9752    19.4661     9.9552 H       
 233 H233         -43.1768    21.5490     9.3500 H       
 234 H234         -41.9378    21.1504     8.1358 H       
 235 H235         -43.6542    20.8224     7.7969 H       
 236 H236         -45.4517    19.4333    11.1227 H       
 237 H237          10.6637    11.7288   -31.2097 H       
 238 H238          11.9310    10.8651   -30.3063 H       
 239 H239          10.3828    10.0601   -30.6576 H       
 240 H240          10.4737    10.8247   -28.3005 H       
 241 H241          10.7546    12.4934   -28.8527 H       
 242 H242           8.5801    12.4651   -30.0440 H       
 243 H243           8.2992    10.7965   -29.4919 H       
 244 H244           8.3901    11.5610   -27.1348 H       
 245 H245           8.6710    13.2297   -27.6870 H       
 246 H246           6.4965    13.2015   -28.8783 H       
 247 H247           6.2156    11.5328   -28.3262 H       
 248 H248           6.3065    12.2974   -25.9692 H       
 249 H249           6.5874    13.9661   -26.5213 H       
 250 H250           4.4129    13.9379   -27.7127 H       
 251 H251           4.1320    12.2692   -27.1605 H       
 252 H252           4.2230    13.0338   -24.8035 H       
 253 H253           4.5038    14.7025   -25.3556 H       
 254 H254           2.3293    14.6743   -26.5470 H       
 255 H255           2.0485    13.0056   -25.9948 H       
 256 H256           2.1394    13.7702   -23.6378 H       
 257 H257           2.4202    15.4389   -24.1899 H       
 258 H258           0.2457    15.4106   -25.3813 H       
 259 H259          -0.0351    13.7419   -24.8292 H       
 260 H260           0.0558    14.5065   -22.4721 H       
 261 H261           0.3366    16.1752   -23.0242 H       
 262 H262          -1.8379    16.1470   -24.2156 H       
 263 H263          -2.1187    14.4783   -23.6635 H       
 264 H264          -2.0278    15.2429   -21.3064 H       
 265 H265          -1.7470    16.9116   -21.8585 H       
 266 H266          -4.2023    15.2147   -22.4978 H       
 267 H267          -3.9215    16.8834   -23.0499 H       
@<TRIPOS>BOND
   1    1    2 2
   2    1    4 1
   3    1    9 am
   4    3  107 am
   5    3    4 1
   6    3  124 1
   7    4    5 1
   8    4  125 1
   9    5    6 1
  10    5  126 1
  11    5  127 1
  12    6  128 1
  13    7    8 2
  14    7   10 1
  15    7   13 am
  16    9   10 1
  17    9  129 1
  18   10  130 1
  19   10  131 1
  20   11   12 2
  21   11   14 1
  22   11   24 am
  23   13   14 1
  24   13  132 1
  25   14   15 1
  26   14  133 1
  27   15   16 1
  28   15  134 1
  29   15  135 1
  30   16   17 1
  31   16  136 1
  32   16  137 1
  33   17   18 1
  34   17  138 1
  35   17  139 1
  36   18   19 1
  37   18  140 1
  38   19   20 2
  39   19   21 1
  40   20  141 1
  41   21  142 1
  42   21  143 1
  43   22   23 2
  44   22   25 1
  45   22   31 am
  46   24   25 1
  47   24  144 1
  48   25   26 1
  49   25  145 1
  50   26   27 1
  51   26   28 1
  52   26  146 1
  53   27  147 1
  54   27  148 1
  55   27  149 1
  56   28  150 1
  57   28  151 1
  58   28  152 1
  59   29   30 2
  60   29   32 1
  61   29   39 am
  62   31   32 1
  63   31  153 1
  64   32   33 1
  65   32  154 1
  66   33   34 1
  67   33  155 1
  68   33  156 1
  69   34   35 1
  70   34   36 1
  71   34  157 1
  72   35  158 1
  73   35  159 1
  74   35  160 1
  75   36  161 1
  76   36  162 1
  77   36  163 1
  78   37   38 2
  79   37   40 1
  80   37   44 am
  81   39   40 1
  82   39  164 1
  83   40   41 1
  84   40  165 1
  85   41  166 1
  86   41  167 1
  87   41  168 1
  88   42   43 2
  89   42   45 1
  90   42   51 am
  91   44   45 1
  92   44  169 1
  93   45   46 1
  94   45  170 1
  95   46   47 1
  96   46   48 1
  97   46  171 1
  98   47  172 1
  99   47  173 1
 100   47  174 1
 101   48  175 1
 102   49   50 2
 103   49   52 1
 104   49   60 am
 105   51   52 1
 106   51  176 1
 107   52   53 1
 108   52  177 1
 109   53   54 1
 110   53  178 1
 111   53  179 1
 112   54   55 1
 113   54  180 1
 114   54  181 1
 115   55   56 1
 116   55  182 1
 117   55  183 1
 118   56   57 1
 119   56  184 1
 120   56  185 1
 121   57  186 1
 122   57  187 1
 123   58   59 2
 124   58   61 1
 125   58   68 am
 126   60   61 1
 127   60  188 1
 128   61   62 1
 129   61  189 1
 130   62   63 1
 131   62  190 1
 132   62  191 1
 133   63   64 1
 134   63   65 1
 135   63  192 1
 136   64  193 1
 137   64  194 1
 138   64  195 1
 139   65  196 1
 140   65  197 1
 141   65  198 1
 142   66   67 2
 143   66   69 1
 144   66   79 am
 145   68   69 1
 146   68  199 1
 147   69   70 1
 148   69  200 1
 149   70   71 1
 150   70  201 1
 151   70  202 1
 152   71   72 1
 153   71  203 1
 154   71  204 1
 155   72   73 1
 156   72  205 1
 157   72  206 1
 158   73   74 1
 159   73  207 1
 160   74   75 2
 161   74   76 1
 162   75  208 1
 163   76  209 1
 164   76  210 1
 165   77   78 2
 166   77   80 1
 167   77   88 am
 168   79   80 1
 169   79  211 1
 170   80   81 1
 171   80  212 1
 172   81   82 1
 173   81  213 1
 174   81  214 1
 175   82   83 1
 176   82  215 1
 177   82  216 1
 178   83   84 2
 179   83   85 1
 180   85  217 1
 181   86   87 2
 182   86   89 1
 183   86   95 am
 184   88   89 1
 185   88  218 1
 186   89   90 1
 187   89  219 1
 188   90   91 1
 189   90   92 1
 190   90  220 1
 191   91  221 1
 192   91  222 1
 193   91  223 1
 194   92  224 1
 195   93   94 2
 196   93   96 1
 197   93  103 am
 198   95   96 1
 199   95  225 1
 200   96   97 1
 201   96  226 1
 202   97   98 1
 203   97  227 1
 204   97  228 1
 205   98   99 2
 206   98  100 am
 207  100  229 1
 208  100  230 1
 209  101  102 2
 210  101  104 1
 211  101  106 1
 212  103  104 1
 213  103  231 1
 214  104  105 1
 215  104  232 1
 216  105  233 1
 217  105  234 1
 218  105  235 1
 219  106  236 1
 220  107  108 2
 221  107  123 1
 222  109  110 1
 223  109  237 1
 224  109  238 1
 225  109  239 1
 226  110  111 1
 227  110  240 1
 228  110  241 1
 229  111  112 1
 230  111  242 1
 231  111  243 1
 232  112  113 1
 233  112  244 1
 234  112  245 1
 235  113  114 1
 236  113  246 1
 237  113  247 1
 238  114  115 1
 239  114  248 1
 240  114  249 1
 241  115  116 1
 242  115  250 1
 243  115  251 1
 244  116  117 1
 245  116  252 1
 246  116  253 1
 247  117  118 1
 248  117  254 1
 249  117  255 1
 250  118  119 1
 251  118  256 1
 252  118  257 1
 253  119  120 1
 254  119  258 1
 255  119  259 1
 256  120  121 1
 257  120  260 1
 258  120  261 1
 259  121  122 1
 260  121  262 1
 261  121  263 1
 262  122  123 1
 263  122  264 1
 264  122  265 1
 265  123  266 1
 266  123  267 1

#	End of record

