#	Name: ASD03930109
#	Creating user name:	WinNT
#	Creation time:	15. 06. 2019 20:47

#	Modifying user name:	WinNT
#	Modification time:	15. 06. 2019 20:47

#	Program:	/corina/corina34_cracker 3.40 0067  02.08.2006

@<TRIPOS>MOLECULE
ASD03930109
  56   59    0    0    0
SMALL
NO_CHARGES


@<TRIPOS>ATOM
   1 C1            -0.0167     1.3783     0.0096 C.ar    
   2 C2             0.0021    -0.0041     0.0020 C.ar    
   3 C3             1.2080    -0.6769    -0.0131 C.ar    
   4 C4             2.3998     0.0287    -0.0207 C.ar    
   5 C5             2.3810     1.4107    -0.0130 C.ar    
   6 C6             1.1706     2.0837     0.0021 C.ar    
   7 C7             3.8311    -0.4635    -0.0369 C.3     
   8 C8             4.6717     0.7533    -0.4785 C.3     
   9 C9             3.7985     1.9418    -0.0236 C.3     
  10 N10            5.9672     0.7671     0.2054 N.am    
  11 C11           -1.2922    -0.7760     0.0107 C.3     
  12 N12           -1.7253    -1.0187    -1.3676 N.pl3   
  13 N13           -1.3894    -2.1295    -2.1559 N.2     
  14 C14           -1.9650    -1.9925    -3.3255 C.2     
  15 C15           -2.6806    -0.7974    -3.3177 C.2     
  16 C16           -2.5195    -0.2202    -2.0996 C.2     
  17 C17           -1.8693    -2.9591    -4.4776 C.3     
  18 F18           -1.1594    -4.0955    -4.0752 F       
  19 F19           -3.1557    -3.3318    -4.8818 F       
  20 F20           -1.2039    -2.3475    -5.5455 F       
  21 S21            7.3151     1.3151    -0.5853 S.o2    
  22 O22            8.3640     1.1591     0.3607 O.2     
  23 O23            7.3201     0.5946    -1.8101 O.2     
  24 C24            6.9821     3.0733    -0.8824 C.3     
  25 C25            6.7752     3.7864     0.4554 C.3     
  26 C26            8.1692     3.7003    -1.6163 C.3     
  27 C27           -3.5093    -0.2064    -4.4309 C.3     
  28 C28           -4.4215     0.8725    -3.8343 C.3     
  29 C29           -3.5898     1.8254    -2.9715 C.3     
  30 C30           -3.1385     1.0953    -1.6982 C.3     
  31 H31           -0.9589     1.9061     0.0170 H       
  32 H32            1.2219    -1.7568    -0.0187 H       
  33 H33            1.1552     3.1635     0.0076 H       
  34 H34            4.1306    -0.7886     0.9595 H       
  35 H35            3.9424    -1.2794    -0.7511 H       
  36 H36            4.8035     0.7610    -1.5605 H       
  37 H37            3.8874     2.7682    -0.7288 H       
  38 H38            4.0892     2.2639     0.9763 H       
  39 H39            6.0354     0.4552     1.1214 H       
  40 H40           -1.1433    -1.7292     0.5180 H       
  41 H41           -2.0549    -0.2005     0.5353 H       
  42 H42            6.0837     3.1751    -1.4912 H       
  43 H43            6.5751     4.8429     0.2768 H       
  44 H44            5.9295     3.3397     0.9782 H       
  45 H45            7.6736     3.6845     1.0641 H       
  46 H46            8.3166     3.1923    -2.5693 H       
  47 H47            7.9691     4.7568    -1.7948 H       
  48 H48            9.0676     3.5985    -1.0075 H       
  49 H49           -2.8542     0.2395    -5.1793 H       
  50 H50           -4.1157    -0.9865    -4.8911 H       
  51 H51           -4.8965     1.4326    -4.6397 H       
  52 H52           -5.1878     0.4007    -3.2192 H       
  53 H53           -2.7171     2.1568    -3.5342 H       
  54 H54           -4.1951     2.6897    -2.6980 H       
  55 H55           -3.9984     0.9185    -1.0521 H       
  56 H56           -2.4004     1.6994    -1.1707 H       
@<TRIPOS>BOND
   1    1    2 ar
   2    1    6 ar
   3    1   31 1
   4    2    3 ar
   5    2   11 1
   6    3    4 ar
   7    3   32 1
   8    4    5 ar
   9    4    7 1
  10    5    6 ar
  11    5    9 1
  12    6   33 1
  13    7    8 1
  14    7   34 1
  15    7   35 1
  16    8    9 1
  17    8   10 1
  18    8   36 1
  19    9   37 1
  20    9   38 1
  21   10   21 am
  22   10   39 1
  23   11   12 1
  24   11   40 1
  25   11   41 1
  26   12   13 1
  27   12   16 1
  28   13   14 2
  29   14   15 1
  30   14   17 1
  31   15   16 2
  32   15   27 1
  33   16   30 1
  34   17   18 1
  35   17   19 1
  36   17   20 1
  37   21   22 2
  38   21   23 2
  39   21   24 1
  40   24   25 1
  41   24   26 1
  42   24   42 1
  43   25   43 1
  44   25   44 1
  45   25   45 1
  46   26   46 1
  47   26   47 1
  48   26   48 1
  49   27   28 1
  50   27   49 1
  51   27   50 1
  52   28   29 1
  53   28   51 1
  54   28   52 1
  55   29   30 1
  56   29   53 1
  57   29   54 1
  58   30   55 1
  59   30   56 1

#	End of record

