#	Name: ASD02500650
#	Creating user name:	WinNT
#	Creation time:	15. 06. 2019 20:23

#	Modifying user name:	WinNT
#	Modification time:	15. 06. 2019 20:23

#	Program:	/corina/corina34_cracker 3.40 0067  02.08.2006

@<TRIPOS>MOLECULE
ASD02500650
  73   77    0    0    0
SMALL
NO_CHARGES


@<TRIPOS>ATOM
   1 N1            -3.6686     5.9350    -1.4952 N.ar    
   2 C2            -4.4726     6.5973    -2.2910 C.ar    
   3 C3            -5.8526     6.6043    -2.0988 C.ar    
   4 C4            -6.3996     5.9078    -1.0591 C.ar    
   5 C5            -5.5331     5.1973    -0.2068 C.ar    
   6 C6            -6.0221     4.4592     0.8826 C.ar    
   7 C7            -5.1514     3.7856     1.6842 C.ar    
   8 C8            -3.7806     3.8193     1.4379 C.ar    
   9 C9            -3.2723     4.5248     0.3908 C.ar    
  10 C10           -4.1392     5.2331    -0.4593 C.ar    
  11 S11           -1.5343     4.5509     0.1025 S.o2    
  12 O12           -1.1734     5.9168    -0.0503 O.2     
  13 O13           -0.9527     3.6979     1.0790 O.2     
  14 N14           -1.2699     3.8304    -1.3649 N.am    
  15 C15           -1.5159     2.4689    -1.5267 C.ar    
  16 C16           -0.7238     1.7159    -2.3961 C.ar    
  17 C17           -0.9669     0.3672    -2.5569 C.ar    
  18 C18           -2.0069    -0.2426    -1.8480 C.ar    
  19 C19           -2.7959     0.5159    -0.9797 C.ar    
  20 C20           -2.5457     1.8609    -0.8183 C.ar    
  21 O21            0.2866     2.3119    -3.0845 O.3     
  22 C22            1.0562     1.4811    -3.9560 C.3     
  23 C23           -2.2706    -1.6841    -2.0173 C.2     
  24 O24           -2.2010    -2.1895    -3.1211 O.2     
  25 N25           -2.5887    -2.4410    -0.9485 N.am    
  26 C26           -2.7660    -3.8953    -1.0791 C.3     
  27 C27           -1.9094    -4.5877    -0.0138 C.3     
  28 N28           -2.2388    -4.0381     1.3081 N.3     
  29 C29           -1.9112    -2.6083     1.3874 C.3     
  30 C30           -2.7619    -1.8356     0.3807 C.3     
  31 C31           -1.5662    -4.7923     2.3743 C.3     
  32 C32           -1.7243    -4.0617     3.6829 C.ar    
  33 C33           -2.9079    -4.1712     4.3994 C.ar    
  34 C34           -3.0528    -3.4990     5.6030 C.ar    
  35 C35           -2.0143    -2.7187     6.0880 C.ar    
  36 C36           -0.8330    -2.6126     5.3680 C.ar    
  37 C37           -0.6889    -3.2882     4.1710 C.ar    
  38 O38           -2.1535    -2.0582     7.2675 O.3     
  39 C39           -1.0431    -1.2730     7.7063 C.3     
  40 O40           -3.9241    -4.9363     3.9212 O.3     
  41 C41           -5.1131    -5.0032     4.7112 C.3     
  42 H42           -4.0541     7.1526    -3.1174 H       
  43 H43           -6.4891     7.1602    -2.7713 H       
  44 H44           -7.4670     5.9025    -0.8952 H       
  45 H45           -7.0827     4.4260     1.0841 H       
  46 H46           -5.5285     3.2180     2.5221 H       
  47 H47           -3.1104     3.2773     2.0886 H       
  48 H48           -0.9437     4.3565    -2.1117 H       
  49 H49           -0.3554    -0.2164    -3.2292 H       
  50 H50           -3.5997     0.0468    -0.4317 H       
  51 H51           -3.1537     2.4450    -0.1433 H       
  52 H52            1.5253     0.6847    -3.3783 H       
  53 H53            0.4036     1.0453    -4.7125 H       
  54 H54            1.8267     2.0797    -4.4420 H       
  55 H55           -3.8148    -4.1512    -0.9289 H       
  56 H56           -2.4465    -4.2154    -2.0709 H       
  57 H57           -2.1125    -5.6586    -0.0234 H       
  58 H58           -0.8544    -4.4153    -0.2268 H       
  59 H59           -2.1156    -2.2436     2.3940 H       
  60 H60           -0.8562    -2.4634     1.1549 H       
  61 H61           -2.4397    -0.7946     0.3537 H       
  62 H62           -3.8103    -1.8897     0.6740 H       
  63 H63           -2.0123    -5.7835     2.4553 H       
  64 H64           -0.5065    -4.8890     2.1379 H       
  65 H65           -3.9732    -3.5826     6.1619 H       
  66 H66           -0.0238    -2.0049     5.7453 H       
  67 H67            0.2329    -3.2078     3.6142 H       
  68 H68           -0.1710    -1.9148     7.8312 H       
  69 H69           -0.8255    -0.5048     6.9643 H       
  70 H70           -1.2858    -0.8004     8.6581 H       
  71 H71           -5.8422    -5.6450     4.2167 H       
  72 H72           -4.8747    -5.4130     5.6926 H       
  73 H73           -5.5293    -4.0024     4.8267 H       
@<TRIPOS>BOND
   1    1    2 ar
   2    1   10 ar
   3    2    3 ar
   4    2   42 1
   5    3    4 ar
   6    3   43 1
   7    4    5 ar
   8    4   44 1
   9    5    6 ar
  10    5   10 ar
  11    6    7 ar
  12    6   45 1
  13    7    8 ar
  14    7   46 1
  15    8    9 ar
  16    8   47 1
  17    9   10 ar
  18    9   11 1
  19   11   12 2
  20   11   13 2
  21   11   14 am
  22   14   15 1
  23   14   48 1
  24   15   16 ar
  25   15   20 ar
  26   16   17 ar
  27   16   21 1
  28   17   18 ar
  29   17   49 1
  30   18   19 ar
  31   18   23 1
  32   19   20 ar
  33   19   50 1
  34   20   51 1
  35   21   22 1
  36   22   52 1
  37   22   53 1
  38   22   54 1
  39   23   24 2
  40   23   25 am
  41   25   26 1
  42   25   30 1
  43   26   27 1
  44   26   55 1
  45   26   56 1
  46   27   28 1
  47   27   57 1
  48   27   58 1
  49   28   29 1
  50   28   31 1
  51   29   30 1
  52   29   59 1
  53   29   60 1
  54   30   61 1
  55   30   62 1
  56   31   32 1
  57   31   63 1
  58   31   64 1
  59   32   33 ar
  60   32   37 ar
  61   33   34 ar
  62   33   40 1
  63   34   35 ar
  64   34   65 1
  65   35   36 ar
  66   35   38 1
  67   36   37 ar
  68   36   66 1
  69   37   67 1
  70   38   39 1
  71   39   68 1
  72   39   69 1
  73   39   70 1
  74   40   41 1
  75   41   71 1
  76   41   72 1
  77   41   73 1

#	End of record

