#	Name: ASD03090558
#	Creating user name:	WinNT
#	Creation time:	15. 06. 2019 20:29

#	Modifying user name:	WinNT
#	Modification time:	15. 06. 2019 20:29

#	Program:	/corina/corina34_cracker 3.40 0067  02.08.2006

@<TRIPOS>MOLECULE
ASD03090558
  32   33    0    0    0
SMALL
NO_CHARGES


@<TRIPOS>ATOM
   1 N1            -0.0162     1.3436     0.0094 N.am    
   2 C2            -0.2134     0.1138    -0.5057 C.2     
   3 O3             0.6754    -0.4340    -1.1288 O.2     
   4 N4            -1.3959    -0.5086    -0.3302 N.am    
   5 S5            -3.0381    -2.6977    -0.7269 S.3     
   6 C6            -1.5994    -1.7775    -0.8617 C.2     
   7 N7            -0.7301    -2.4614    -1.5428 N.2     
   8 N8            -1.0762    -3.6033    -1.9555 N.2     
   9 C9            -2.2764    -3.9879    -1.6578 C.2     
  10 C10           -2.9087    -5.3019    -2.0383 C.3     
  11 C11            1.2473     1.9400    -0.0676 C.ar    
  12 C12            1.3590     3.3163    -0.2177 C.ar    
  13 C13            2.6071     3.9026    -0.2936 C.ar    
  14 C14            3.7456     3.1212    -0.2203 C.ar    
  15 C15            3.6383     1.7497    -0.0707 C.ar    
  16 C16            2.3915     1.1579     0.0115 C.ar    
  17 C17            5.1059     3.7645    -0.3039 C.3     
  18 C18            0.1192     4.1692    -0.2983 C.3     
  19 Cl19           5.0701     0.7725     0.0209 Cl      
  20 H20           -0.7511     1.8168     0.4300 H       
  21 H21           -2.1050    -0.0716     0.1669 H       
  22 H22           -3.4117    -5.1981    -2.9997 H       
  23 H23           -2.1373    -6.0683    -2.1127 H       
  24 H24           -3.6346    -5.5895    -1.2777 H       
  25 H25            2.6940     4.9728    -0.4106 H       
  26 H26            2.3079     0.0880     0.1331 H       
  27 H27            5.4442     4.0305     0.6975 H       
  28 H28            5.8116     3.0650    -0.7520 H       
  29 H29            5.0457     4.6632    -0.9177 H       
  30 H30           -0.1700     4.4854     0.7040 H       
  31 H31            0.3212     5.0469    -0.9121 H       
  32 H32           -0.6904     3.5920    -0.7449 H       
@<TRIPOS>BOND
   1    1    2 am
   2    1   11 1
   3    1   20 1
   4    2    3 2
   5    2    4 am
   6    4    6 1
   7    4   21 1
   8    5    6 1
   9    5    9 1
  10    6    7 2
  11    7    8 1
  12    8    9 2
  13    9   10 1
  14   10   22 1
  15   10   23 1
  16   10   24 1
  17   11   12 ar
  18   11   16 ar
  19   12   13 ar
  20   12   18 1
  21   13   14 ar
  22   13   25 1
  23   14   15 ar
  24   14   17 1
  25   15   16 ar
  26   15   19 1
  27   16   26 1
  28   17   27 1
  29   17   28 1
  30   17   29 1
  31   18   30 1
  32   18   31 1
  33   18   32 1

#	End of record

