#	Name: ASD09490003
#	Creating user name:	WinNT
#	Creation time:	15. 06. 2019 21:22

#	Modifying user name:	WinNT
#	Modification time:	15. 06. 2019 21:22

#	Program:	/corina/corina34_cracker 3.40 0067  02.08.2006

@<TRIPOS>MOLECULE
ASD09490003
  42   44    0    0    0
SMALL
NO_CHARGES


@<TRIPOS>ATOM
   1 C1            -0.0024     1.3705     0.0232 C.ar    
   2 C2            -1.0740     1.7840     0.8212 C.ar    
   3 C3            -2.2693     1.0674     0.8232 C.ar    
   4 C4            -2.4003    -0.0591     0.0332 C.ar    
   5 C5            -1.3352    -0.4750    -0.7636 C.ar    
   6 C6            -0.1655     0.2190    -0.7773 C.ar    
   7 N7             1.0739     2.1729     0.1390 N.2     
   8 C8             0.9960     3.1764     0.9302 C.2     
   9 S9            -0.5869     3.2353     1.6933 S.3     
  10 N10           -3.6004    -0.7813     0.0338 N.am    
  11 C11           -4.7766    -0.1337     0.1510 C.2     
  12 N12           -5.9344    -0.8171     0.0574 N.am    
  13 O13           -4.7931     1.0672     0.3410 O.2     
  14 C14           -7.2129    -0.1131     0.1847 C.3     
  15 C15           -8.3621    -1.1129     0.0411 C.3     
  16 C16           -9.6973    -0.3777     0.1740 C.3     
  17 C17          -10.8454    -1.3531    -0.0931 C.3     
  18 C18          -12.1806    -0.6179     0.0398 C.3     
  19 C19          -12.3118    -0.0509     1.4548 C.3     
  20 C20          -11.1637     0.9245     1.7219 C.3     
  21 C21           -9.8286     0.1893     1.5890 C.3     
  22 H22           -3.0927     1.3920     1.4421 H       
  23 H23           -1.4410    -1.3557    -1.3797 H       
  24 H24            0.6490    -0.1183    -1.4011 H       
  25 H25            1.7907     3.8867     1.1044 H       
  26 H26           -3.5850    -1.7475    -0.0500 H       
  27 H27           -5.9212    -1.7751    -0.0942 H       
  28 H28           -7.2681     0.3659     1.1622 H       
  29 H29           -7.2901     0.6438    -0.5957 H       
  30 H30           -8.3069    -1.5919    -0.9365 H       
  31 H31           -8.2849    -1.8699     0.8215 H       
  32 H32           -9.7370     0.4370    -0.5490 H       
  33 H33          -10.7518    -1.7570    -1.1012 H       
  34 H34          -10.8056    -2.1678     0.6299 H       
  35 H35          -12.2203     0.1968    -0.6832 H       
  36 H36          -12.9985    -1.3128    -0.1505 H       
  37 H37          -13.2631     0.4729     1.5495 H       
  38 H38          -12.2721    -0.8656     2.1778 H       
  39 H39          -11.2035     1.7392     0.9989 H       
  40 H40          -11.2573     1.3285     2.7300 H       
  41 H41           -9.7888    -0.6254     2.3120 H       
  42 H42           -9.0106     0.8842     1.7793 H       
@<TRIPOS>BOND
   1    1    2 ar
   2    1    7 1
   3    1    6 ar
   4    2    3 ar
   5    2    9 1
   6    3    4 ar
   7    3   22 1
   8    4    5 ar
   9    4   10 1
  10    5    6 ar
  11    5   23 1
  12    6   24 1
  13    7    8 2
  14    8    9 1
  15    8   25 1
  16   10   11 am
  17   10   26 1
  18   11   12 am
  19   11   13 2
  20   12   14 1
  21   12   27 1
  22   14   15 1
  23   14   28 1
  24   14   29 1
  25   15   16 1
  26   15   30 1
  27   15   31 1
  28   16   17 1
  29   16   21 1
  30   16   32 1
  31   17   18 1
  32   17   33 1
  33   17   34 1
  34   18   19 1
  35   18   35 1
  36   18   36 1
  37   19   20 1
  38   19   37 1
  39   19   38 1
  40   20   21 1
  41   20   39 1
  42   20   40 1
  43   21   41 1
  44   21   42 1

#	End of record

