#	Name: ASD03930021
#	Creating user name:	WinNT
#	Creation time:	15. 06. 2019 20:47

#	Modifying user name:	WinNT
#	Modification time:	15. 06. 2019 20:47

#	Program:	/corina/corina34_cracker 3.40 0067  02.08.2006

@<TRIPOS>MOLECULE
ASD03930021
  27   29    0    0    0
SMALL
NO_CHARGES


@<TRIPOS>ATOM
   1 C1            -0.0164     1.3577     0.0095 C.ar    
   2 C2             0.0021    -0.0041     0.0020 C.ar    
   3 C3            -1.1832    -0.7281    -0.0043 C.ar    
   4 C4            -2.4057    -0.1103    -0.0023 C.ar    
   5 C5            -2.4639     1.2902     0.0371 C.ar    
   6 C6            -1.2513     2.0332     0.0308 C.ar    
   7 C7            -3.6155    -1.0033    -0.0666 C.3     
   8 N8            -4.7567    -0.4099     0.6411 N.am    
   9 S9            -5.2001     1.1277     0.1670 S.o2    
  10 C10           -3.6700     2.0123     0.1090 C.ar    
  11 C11           -3.6738     3.3691     0.1307 C.ar    
  12 C12           -2.4812     4.0892     0.0878 C.ar    
  13 C13           -1.2887     3.4370     0.0405 C.ar    
  14 O14           -5.6710     1.0283    -1.1700 O.2     
  15 O15           -5.9599     1.6852     1.2305 O.2     
  16 C16           -5.4666    -1.1272     1.7031 C.3     
  17 F17            1.1410     2.0545     0.0022 F       
  18 H18            0.9476    -0.5260     0.0006 H       
  19 H19           -1.1397    -1.8072    -0.0114 H       
  20 H20           -3.8866    -1.1620    -1.1104 H       
  21 H21           -3.3743    -1.9640     0.3881 H       
  22 H22           -4.6139     3.8982     0.1814 H       
  23 H23           -2.5040     5.1689     0.0969 H       
  24 H24           -0.3680     4.0004     0.0051 H       
  25 H25           -5.0024    -0.9057     2.6642 H       
  26 H26           -6.5092    -0.8101     1.7216 H       
  27 H27           -5.4162    -2.1994     1.5138 H       
@<TRIPOS>BOND
   1    1    2 ar
   2    1   17 1
   3    1    6 ar
   4    2    3 ar
   5    2   18 1
   6    3    4 ar
   7    3   19 1
   8    4    5 ar
   9    4    7 1
  10    5    6 ar
  11    5   10 ar
  12    6   13 ar
  13    7    8 1
  14    7   20 1
  15    7   21 1
  16    8    9 am
  17    8   16 1
  18    9   10 1
  19    9   14 2
  20    9   15 2
  21   10   11 ar
  22   11   12 ar
  23   11   22 1
  24   12   13 ar
  25   12   23 1
  26   13   24 1
  27   16   25 1
  28   16   26 1
  29   16   27 1

#	End of record

