#	Name: ASD00570001
#	Creating user name:	WinNT
#	Creation time:	15. 06. 2019 18:36

#	Modifying user name:	WinNT
#	Modification time:	15. 06. 2019 18:36

#	Program:	/corina/corina34_cracker 3.40 0067  02.08.2006

@<TRIPOS>MOLECULE
ASD00570001
  36   38    0    0    0
SMALL
NO_CHARGES


@<TRIPOS>ATOM
   1 C1            -0.0275     1.3461     0.0443 C.ar    
   2 C2            -0.0031    -0.0410     0.0387 C.ar    
   3 C3             1.1976    -0.7187     0.0199 C.ar    
   4 C4             2.3888    -0.0066     0.0062 C.ar    
   5 C5             2.3635     1.3986     0.0115 C.ar    
   6 C6             1.1352     2.0637     0.0310 C.ar    
   7 N7             3.7223    -0.3636    -0.0136 N.pl3   
   8 C8             4.4490     0.7865    -0.0198 C.2     
   9 N9             3.6551     1.8172    -0.0051 N.2     
  10 C10            5.9542     0.8564    -0.0398 C.3     
  11 C11            6.4094     1.7103    -1.2249 C.3     
  12 O12            6.4275     1.4529     1.1966 O.3     
  13 C13            7.6364     1.0603     1.6411 C.2     
  14 O14            8.2782     0.2417     1.0131 O.2     
  15 N15            8.1344     1.5753     2.7827 N.am    
  16 C16            9.3379     1.0862     3.3048 C.ar    
  17 C17           10.2133     1.9449     3.9554 C.ar    
  18 C18           11.4007     1.4592     4.4704 C.ar    
  19 C19           11.7165     0.1175     4.3373 C.ar    
  20 C20           10.8450    -0.7395     3.6885 C.ar    
  21 C21            9.6551    -0.2599     3.1775 C.ar    
  22 Cl22          13.2082    -0.4901     4.9848 Cl      
  23 Cl23          12.4968     2.5319     5.2839 Cl      
  24 H24           -0.9752     1.8640     0.0548 H       
  25 H25           -0.9309    -0.5937     0.0494 H       
  26 H26            1.2111    -1.7987     0.0163 H       
  27 H27            1.1047     3.1433     0.0349 H       
  28 H28            4.0756    -1.2669    -0.0213 H       
  29 H29            6.3634    -0.1491    -0.1380 H       
  30 H30            7.4981     1.7609    -1.2394 H       
  31 H31            6.0541     1.2625    -2.1530 H       
  32 H32            6.0003     2.7158    -1.1267 H       
  33 H33            7.6591     2.2849     3.2426 H       
  34 H34            9.9671     2.9914     4.0589 H       
  35 H35           11.0937    -1.7854     3.5857 H       
  36 H36            8.9755    -0.9295     2.6713 H       
@<TRIPOS>BOND
   1    1    2 ar
   2    1    6 ar
   3    1   24 1
   4    2    3 ar
   5    2   25 1
   6    3    4 ar
   7    3   26 1
   8    4    5 ar
   9    4    7 1
  10    5    6 ar
  11    5    9 1
  12    6   27 1
  13    7    8 1
  14    7   28 1
  15    8    9 2
  16    8   10 1
  17   10   11 1
  18   10   12 1
  19   10   29 1
  20   11   30 1
  21   11   31 1
  22   11   32 1
  23   12   13 1
  24   13   14 2
  25   13   15 am
  26   15   16 1
  27   15   33 1
  28   16   17 ar
  29   16   21 ar
  30   17   18 ar
  31   17   34 1
  32   18   19 ar
  33   18   23 1
  34   19   20 ar
  35   19   22 1
  36   20   21 ar
  37   20   35 1
  38   21   36 1

#	End of record

