#	Name: ASD01812954
#	Creating user name:	WinNT
#	Creation time:	15. 06. 2019 19:29

#	Modifying user name:	WinNT
#	Modification time:	15. 06. 2019 19:29

#	Program:	/corina/corina34_cracker 3.40 0067  02.08.2006

@<TRIPOS>MOLECULE
ASD01812954
  48   52    0    0    0
SMALL
NO_CHARGES


@<TRIPOS>ATOM
   1 C1             0.1854     1.6030    -1.1385 C.ar    
   2 C2             0.2892     0.3180    -1.6324 C.ar    
   3 C3             1.4635    -0.4015    -1.4693 C.ar    
   4 C4             2.5318     0.1617    -0.8141 C.ar    
   5 C5             2.4448     1.4621    -0.3077 C.ar    
   6 C6             1.2557     2.1853    -0.4750 C.ar    
   7 C7             3.9155    -0.3346    -0.4761 C.3     
   8 N8             4.5796     0.7604     0.2404 N.am    
   9 C9             3.7266     1.7949     0.3350 C.2     
  10 C10            5.9465     0.7306     0.7666 C.3     
  11 C11            6.9010     1.2325    -0.2860 C.ar    
  12 O12            1.1518     3.4478     0.0101 O.3     
  13 O13            3.9781     2.8551     0.8747 O.2     
  14 C14            7.2040     2.5799    -0.3565 C.ar    
  15 C15            8.0785     3.0429    -1.3201 C.ar    
  16 C16            8.6535     2.1541    -2.2184 C.ar    
  17 C17            8.3473     0.8019    -2.1451 C.ar    
  18 C18            7.4764     0.3441    -1.1757 C.ar    
  19 C19           -0.0538     4.0682    -0.0792 C.ar    
  20 N20            9.9366     3.9519    -3.3849 N.2     
  21 N21            9.5410     2.6211    -3.1979 N.pl3   
  22 C22           10.1676     1.8667    -4.1289 C.2     
  23 C23           10.9337     2.6916    -4.8797 C.2     
  24 C24           10.7708     3.9931    -4.3925 C.2     
  25 C25           -0.9850     3.9260     0.9394 C.ar    
  26 C26           -2.2123     4.5584     0.8471 C.ar    
  27 C27           -2.5114     5.3324    -0.2613 C.ar    
  28 C28           -1.5833     5.4748    -1.2789 C.ar    
  29 C29           -0.3526     4.8490    -1.1863 C.ar    
  30 F30           -1.8770     6.2301    -2.3598 F       
  31 F31           -3.1193     4.4201     1.8388 F       
  32 H32           -0.7308     2.1586    -1.2730 H       
  33 H33           -0.5480    -0.1290    -2.1478 H       
  34 H34            1.5383    -1.4065    -1.8577 H       
  35 H35            3.8520    -1.2159     0.1621 H       
  36 H36            4.4622    -0.5710    -1.3890 H       
  37 H37            6.0102     1.3679     1.6486 H       
  38 H38            6.2093    -0.2920     1.0375 H       
  39 H39            6.7562     3.2708     0.3424 H       
  40 H40            8.3146     4.0954    -1.3749 H       
  41 H41            8.7927     0.1082    -2.8428 H       
  42 H42            7.2415    -0.7083    -1.1151 H       
  43 H43           10.0738     0.7977    -4.2510 H       
  44 H44           11.5605     2.3973    -5.7085 H       
  45 H45           11.2507     4.8791    -4.7811 H       
  46 H46           -0.7522     3.3218     1.8037 H       
  47 H47           -3.4698     5.8252    -0.3324 H       
  48 H48            0.3730     4.9642    -1.9779 H       
@<TRIPOS>BOND
   1    1    2 ar
   2    1    6 ar
   3    1   32 1
   4    2    3 ar
   5    2   33 1
   6    3    4 ar
   7    3   34 1
   8    4    7 1
   9    4    5 ar
  10    5    6 ar
  11    5    9 1
  12    6   12 1
  13    7    8 1
  14    7   35 1
  15    7   36 1
  16    8    9 am
  17    8   10 1
  18    9   13 2
  19   10   11 1
  20   10   37 1
  21   10   38 1
  22   11   14 ar
  23   11   18 ar
  24   12   19 1
  25   14   15 ar
  26   14   39 1
  27   15   16 ar
  28   15   40 1
  29   16   17 ar
  30   16   21 1
  31   17   18 ar
  32   17   41 1
  33   18   42 1
  34   19   25 ar
  35   19   29 ar
  36   20   21 1
  37   20   24 2
  38   21   22 1
  39   22   23 2
  40   22   43 1
  41   23   24 1
  42   23   44 1
  43   24   45 1
  44   25   26 ar
  45   25   46 1
  46   26   27 ar
  47   26   31 1
  48   27   28 ar
  49   27   47 1
  50   28   29 ar
  51   28   30 1
  52   29   48 1

#	End of record

