#	Name: ASD01028636
#	Creating user name:	WinNT
#	Creation time:	15. 06. 2019 18:57

#	Modifying user name:	WinNT
#	Modification time:	15. 06. 2019 18:57

#	Program:	/corina/corina34_cracker 3.40 0067  02.08.2006

@<TRIPOS>MOLECULE
ASD01028636
  49   53    0    0    0
SMALL
NO_CHARGES


@<TRIPOS>ATOM
   1 C1            -0.0164     1.3590     0.0095 C.2     
   2 N2             0.0021    -0.0041     0.0020 N.pl3   
   3 C3             1.1472     2.0640     0.0022 C.2     
   4 C4             2.3887     1.3853    -0.0133 C.2     
   5 C5             2.4116     0.0258    -0.0208 C.2     
   6 C6             1.1933    -0.6865    -0.0130 C.2     
   7 N7             0.8963    -1.9758    -0.0175 N.2     
   8 N8            -0.3820    -2.1221    -0.0063 N.2     
   9 C9            -0.9719    -0.9546     0.0062 C.2     
  10 C10           -3.7519    -0.5226    -2.0863 C.ar    
  11 C11           -3.0820    -1.3177    -1.2070 C.ar    
  12 C12           -2.9651    -2.6882    -1.4287 C.ar    
  13 C13           -3.5155    -3.2714    -2.5284 C.ar    
  14 C14           -4.2150    -2.4842    -3.4594 C.ar    
  15 C15           -4.3330    -1.0903    -3.2317 C.ar    
  16 N16           -4.7652    -3.0310    -4.5484 N.ar    
  17 C17           -5.4183    -2.3044    -5.4213 C.ar    
  18 C18           -5.5727    -0.9239    -5.2589 C.ar    
  19 C19           -5.0330    -0.3024    -4.1637 C.ar    
  20 C20            1.1143     3.5477     0.0100 C.ar    
  21 C21           -2.4584    -0.7073     0.0216 C.3     
  22 F22            3.5889    -0.6365    -0.0360 F       
  23 C23           -3.0682    -1.3430     1.2725 C.3     
  24 O24           -6.2569    -0.2011    -6.1844 O.3     
  25 C25           -6.7926    -0.9163    -7.2996 C.3     
  26 C26            1.6182     4.2519     1.1012 C.ar    
  27 C27            0.5846     4.2404    -1.0765 C.ar    
  28 C28            0.5564     5.6226    -1.0653 C.ar    
  29 C29            1.0537     6.3186     0.0240 C.ar    
  30 C30            1.5860     5.6341     1.1040 C.ar    
  31 F31            0.0434     6.2954    -2.1186 F       
  32 F32            2.0698     6.3179     2.1640 F       
  33 H33           -0.9609     1.8827     0.0168 H       
  34 H34            3.3130     1.9439    -0.0195 H       
  35 H35           -3.8397     0.5378    -1.9015 H       
  36 H36           -2.4287    -3.2977    -0.7165 H       
  37 H37           -3.4149    -4.3352    -2.6853 H       
  38 H38           -5.8481    -2.7835    -6.2886 H       
  39 H39           -5.1416     0.7625    -4.0200 H       
  40 H40           -2.6481     0.3661     0.0302 H       
  41 H41           -2.6172    -0.9015     2.1612 H       
  42 H42           -4.1434    -1.1642     1.2837 H       
  43 H43           -2.8785    -2.4164     1.2639 H       
  44 H44           -5.9816    -1.3984    -7.8455 H       
  45 H45           -7.4915    -1.6733    -6.9439 H       
  46 H46           -7.3132    -0.2227    -7.9599 H       
  47 H47            2.0332     3.7189     1.9439 H       
  48 H48            0.1970     3.6984    -1.9265 H       
  49 H49            1.0301     7.3983     0.0295 H       
@<TRIPOS>BOND
   1    1    2 1
   2    1    3 2
   3    1   33 1
   4    2    6 1
   5    2    9 1
   6    3    4 1
   7    3   20 1
   8    4    5 2
   9    4   34 1
  10    5    6 1
  11    5   22 1
  12    6    7 2
  13    7    8 1
  14    8    9 2
  15    9   21 1
  16   10   11 ar
  17   10   15 ar
  18   10   35 1
  19   11   12 ar
  20   11   21 1
  21   12   13 ar
  22   12   36 1
  23   13   14 ar
  24   13   37 1
  25   14   15 ar
  26   14   16 ar
  27   15   19 ar
  28   16   17 ar
  29   17   18 ar
  30   17   38 1
  31   18   19 ar
  32   18   24 1
  33   19   39 1
  34   20   26 ar
  35   20   27 ar
  36   21   23 1
  37   21   40 1
  38   23   41 1
  39   23   42 1
  40   23   43 1
  41   24   25 1
  42   25   44 1
  43   25   45 1
  44   25   46 1
  45   26   30 ar
  46   26   47 1
  47   27   28 ar
  48   27   48 1
  49   28   29 ar
  50   28   31 1
  51   29   30 ar
  52   29   49 1
  53   30   32 1

#	End of record

