#	Name: ASD08178135
#	Creating user name:	WinNT
#	Creation time:	15. 06. 2019 21:18

#	Modifying user name:	WinNT
#	Modification time:	15. 06. 2019 21:18

#	Program:	/corina/corina34_cracker 3.40 0067  02.08.2006

@<TRIPOS>MOLECULE
ASD08178135
  83   87    0    0    0
SMALL
NO_CHARGES


@<TRIPOS>ATOM
   1 C1            -0.0191     1.5027     0.0207 C.ar    
   2 C2             0.0010    -0.0042     0.0166 C.3     
   3 C3            -0.8034    -0.5283     1.2078 C.3     
   4 C4            -0.7830    -2.0581     1.2036 C.3     
   5 C5            -1.5874    -2.5822     2.3949 C.3     
   6 C6            -1.5673    -4.0891     2.3907 C.2     
   7 N7            -0.6926    -4.8430     2.9773 N.2     
   8 N8            -0.8493    -6.0898     2.8558 N.2     
   9 C9            -1.8644    -6.5050     2.1598 C.2     
  10 S10           -2.7350    -5.1430     1.5925 S.3     
  11 N11           -2.1931    -7.8348     1.9197 N.am    
  12 C12            1.1728     2.2124     0.0064 C.ar    
  13 C13            1.1067     3.5974     0.0109 C.ar    
  14 C14           -0.1542     4.1903     0.0295 C.ar    
  15 N15           -1.2376     3.4283     0.0422 N.ar    
  16 N16           -1.1697     2.1466     0.0324 N.ar    
  17 N17           -0.2749     5.5795     0.0353 N.am    
  18 C18           -1.4926     6.1505    -0.0517 C.2     
  19 O19           -2.4744     5.4610    -0.2290 O.2     
  20 C20           -1.6342     7.6458     0.0713 C.3     
  21 C21           -3.0867     8.0253    -0.0606 C.ar    
  22 C22           -3.8892     8.0891     1.0632 C.ar    
  23 C23           -5.2215     8.4372     0.9422 C.ar    
  24 C24           -5.7512     8.7220    -0.3024 C.ar    
  25 C25           -4.9485     8.6592    -1.4261 C.ar    
  26 C26           -3.6151     8.3153    -1.3046 C.ar    
  27 C27           -1.4281    -8.8206     2.4289 C.2     
  28 O28           -0.4530    -8.5481     3.0966 O.2     
  29 C29           -1.7844   -10.2616     2.1687 C.3     
  30 C30           -1.6536   -10.5534     0.6960 C.ar    
  31 C31           -2.7628   -10.4747    -0.1253 C.ar    
  32 C32           -0.4235   -10.8942     0.1655 C.ar    
  33 C33           -0.3036   -11.1618    -1.1854 C.ar    
  34 C34           -1.4139   -11.0890    -2.0057 C.ar    
  35 C35           -2.6429   -10.7423    -1.4762 C.ar    
  36 O36           -0.8860   -11.1246     2.9147 O.3     
  37 C37           -1.3719   -12.3103     3.3143 C.2     
  38 C38           -0.4977   -13.2591     4.0932 C.3     
  39 O39           -2.5102   -12.6170     3.0496 O.2     
  40 C40           -1.2879   -14.5272     4.4223 C.3     
  41 N41           -0.4357   -15.4520     5.1815 N.3     
  42 C42           -1.2219   -16.5721     5.7189 C.3     
  43 C43           -0.2876   -17.5398     6.4500 C.3     
  44 O44            0.4169   -16.8324     7.4739 O.3     
  45 C45            1.1936   -15.7352     6.9857 C.3     
  46 C46            0.2743   -14.7492     6.2600 C.3     
  47 H47           -0.4409    -0.3709    -0.9099 H       
  48 H48            1.0307    -0.3540     0.0913 H       
  49 H49           -0.3615    -0.1615     2.1343 H       
  50 H50           -1.8331    -0.1785     1.1331 H       
  51 H51           -1.2249    -2.4249     0.2772 H       
  52 H52            0.2467    -2.4079     1.2784 H       
  53 H53           -1.1455    -2.2155     3.3213 H       
  54 H54           -2.6171    -2.2324     2.3201 H       
  55 H55           -2.9730    -8.0528     1.3857 H       
  56 H56            2.1241     1.7012    -0.0074 H       
  57 H57            2.0044     4.1978     0.0007 H       
  58 H58            0.5176     6.1349     0.1018 H       
  59 H59           -1.2615     7.9672     1.0438 H       
  60 H60           -1.0588     8.1313    -0.7169 H       
  61 H61           -3.4753     7.8665     2.0356 H       
  62 H62           -5.8487     8.4863     1.8201 H       
  63 H63           -6.7923     8.9933    -0.3970 H       
  64 H64           -5.3624     8.8814    -2.3985 H       
  65 H65           -2.9879     8.2662    -2.1825 H       
  66 H66           -2.8110   -10.4450     2.4857 H       
  67 H67           -3.7230   -10.2044     0.2885 H       
  68 H68            0.4440   -10.9510     0.8063 H       
  69 H69            0.6577   -11.4273    -1.6001 H       
  70 H70           -1.3201   -11.2978    -3.0611 H       
  71 H71           -3.5103   -10.6855    -2.1170 H       
  72 H72            0.3765   -13.5202     3.4969 H       
  73 H73           -0.1766   -12.7807     5.0185 H       
  74 H74           -2.1621   -14.2660     5.0186 H       
  75 H75           -1.6090   -15.0056     3.4970 H       
  76 H76           -1.9689   -16.1913     6.4153 H       
  77 H77           -1.7185   -17.0938     4.9008 H       
  78 H78           -0.8733   -18.3420     6.8989 H       
  79 H79            0.4259   -17.9615     5.7421 H       
  80 H80            1.6790   -15.2322     7.8220 H       
  81 H81            1.9502   -16.1045     6.2934 H       
  82 H82            0.8698   -13.9402     5.8369 H       
  83 H83           -0.4488   -14.3393     6.9651 H       
@<TRIPOS>BOND
   1    1    2 1
   2    1   12 ar
   3    1   16 ar
   4    2    3 1
   5    2   47 1
   6    2   48 1
   7    3    4 1
   8    3   49 1
   9    3   50 1
  10    4    5 1
  11    4   51 1
  12    4   52 1
  13    5    6 1
  14    5   53 1
  15    5   54 1
  16    6    7 2
  17    6   10 1
  18    7    8 1
  19    8    9 2
  20    9   10 1
  21    9   11 1
  22   11   27 am
  23   11   55 1
  24   12   13 ar
  25   12   56 1
  26   13   14 ar
  27   13   57 1
  28   14   15 ar
  29   14   17 1
  30   15   16 ar
  31   17   18 am
  32   17   58 1
  33   18   19 2
  34   18   20 1
  35   20   21 1
  36   20   59 1
  37   20   60 1
  38   21   22 ar
  39   21   26 ar
  40   22   23 ar
  41   22   61 1
  42   23   24 ar
  43   23   62 1
  44   24   25 ar
  45   24   63 1
  46   25   26 ar
  47   25   64 1
  48   26   65 1
  49   27   28 2
  50   27   29 1
  51   29   30 1
  52   29   36 1
  53   29   66 1
  54   30   31 ar
  55   30   32 ar
  56   31   35 ar
  57   31   67 1
  58   32   33 ar
  59   32   68 1
  60   33   34 ar
  61   33   69 1
  62   34   35 ar
  63   34   70 1
  64   35   71 1
  65   36   37 1
  66   37   38 1
  67   37   39 2
  68   38   40 1
  69   38   72 1
  70   38   73 1
  71   40   41 1
  72   40   74 1
  73   40   75 1
  74   41   42 1
  75   41   46 1
  76   42   43 1
  77   42   76 1
  78   42   77 1
  79   43   44 1
  80   43   78 1
  81   43   79 1
  82   44   45 1
  83   45   46 1
  84   45   80 1
  85   45   81 1
  86   46   82 1
  87   46   83 1

#	End of record

