#	Name: ASD05380319
#	Creating user name:	WinNT
#	Creation time:	15. 06. 2019 20:59

#	Modifying user name:	WinNT
#	Modification time:	15. 06. 2019 20:59

#	Program:	/corina/corina34_cracker 3.40 0067  02.08.2006

@<TRIPOS>MOLECULE
ASD05380319
  65   69    0    0    0
SMALL
NO_CHARGES


@<TRIPOS>ATOM
   1 N1             0.1998     1.7507    -0.9677 N.ar    
   2 C2             0.3414     0.4492    -0.7166 C.ar    
   3 C3             1.6144    -0.1168    -0.7739 C.ar    
   4 C4             2.6910     0.7064    -1.0929 C.ar    
   5 N5             2.4716     1.9960    -1.3308 N.ar    
   6 C6             1.2485     2.5006    -1.2677 C.ar    
   7 N7             3.9791     0.1867    -1.1613 N.am    
   8 C8             4.3293    -1.2410    -1.1097 C.3     
   9 C9             5.1032     0.9045    -1.2908 C.2     
  10 O10            6.2163     0.1639    -1.3325 O.3     
  11 C11            5.8659    -1.2463    -1.2248 C.3     
  12 C12            6.4867    -1.8523     0.0074 C.ar    
  13 C13            3.6997    -1.9917    -2.2848 C.3     
  14 O14            5.1107     2.1172    -1.3640 O.2     
  15 N15            1.0619     3.8481    -1.5227 N.3     
  16 C16           -0.3647     4.2003    -1.4775 C.3     
  17 C17            1.6511     4.2262    -2.8154 C.3     
  18 C18            1.4751     5.7319    -3.0295 C.3     
  19 O19            0.0854     6.0602    -2.9512 O.3     
  20 C20           -0.5205     5.7062    -1.7050 C.3     
  21 C21           -0.8374    -0.3843    -0.3809 C.ar    
  22 C22           -1.7381     0.0146     0.6108 C.ar    
  23 N23           -2.7767    -0.7556     0.8811 N.ar    
  24 C24           -2.9696    -1.8919     0.2263 C.ar    
  25 N25           -2.1379    -2.3040    -0.7205 N.ar    
  26 C26           -1.0799    -1.5866    -1.0523 C.ar    
  27 C27           -1.5271     1.3044     1.3611 C.3     
  28 F28           -1.8399     2.3845     0.5289 F       
  29 F29           -2.3553     1.3290     2.4883 F       
  30 F30           -0.1902     1.3970     1.7626 F       
  31 N31           -4.0685    -2.6693     0.5397 N.pl3   
  32 C32            3.9850    -3.4884    -2.1457 C.3     
  33 C33            6.9931    -3.1382    -0.0361 C.ar    
  34 C34            7.5627    -3.6960     1.0921 C.ar    
  35 C35            7.6264    -2.9648     2.2694 C.ar    
  36 C36            7.1177    -1.6748     2.3104 C.ar    
  37 C37            6.5541    -1.1195     1.1779 C.ar    
  38 O38            8.1859    -3.5115     3.3807 O.3     
  39 C39            8.2172    -2.7008     4.5570 C.3     
  40 H40            1.7619    -1.1681    -0.5752 H       
  41 H41            4.0125    -1.6790    -0.1631 H       
  42 H42            6.1797    -1.7873    -2.1175 H       
  43 H43            2.6224    -1.8258    -2.2867 H       
  44 H44            4.1252    -1.6260    -3.2194 H       
  45 H45           -0.8985     3.6572    -2.2574 H       
  46 H46           -0.7743     3.9351    -0.5028 H       
  47 H47            2.7130     3.9800    -2.8174 H       
  48 H48            1.1495     3.6835    -3.6167 H       
  49 H49            2.0215     6.2754    -2.2588 H       
  50 H50            1.8594     6.0072    -4.0117 H       
  51 H51           -1.5795     5.9630    -1.7292 H       
  52 H52           -0.0321     6.2490    -0.8957 H       
  53 H53           -0.4065    -1.9283    -1.8245 H       
  54 H54           -4.6856    -2.3809     1.2303 H       
  55 H55           -4.2228    -3.5033     0.0690 H       
  56 H56            5.0611    -3.6483    -2.0773 H       
  57 H57            3.5033    -3.8678    -1.2445 H       
  58 H58            3.5940    -4.0153    -3.0160 H       
  59 H59            6.9429    -3.7071    -0.9527 H       
  60 H60            7.9578    -4.7006     1.0577 H       
  61 H61            7.1661    -1.1036     3.2257 H       
  62 H62            6.1579    -0.1153     1.2093 H       
  63 H63            8.6886    -3.2557     5.3683 H       
  64 H64            8.7877    -1.7936     4.3580 H       
  65 H65            7.1994    -2.4348     4.8422 H       
@<TRIPOS>BOND
   1    1    2 ar
   2    1    6 ar
   3    2    3 ar
   4    2   21 1
   5    3    4 ar
   6    3   40 1
   7    4    5 ar
   8    4    7 1
   9    5    6 ar
  10    6   15 1
  11    7    8 1
  12    7    9 am
  13    8   13 1
  14    8   11 1
  15    8   41 1
  16    9   10 1
  17    9   14 2
  18   10   11 1
  19   11   12 1
  20   11   42 1
  21   12   33 ar
  22   12   37 ar
  23   13   32 1
  24   13   43 1
  25   13   44 1
  26   15   16 1
  27   15   17 1
  28   16   20 1
  29   16   45 1
  30   16   46 1
  31   17   18 1
  32   17   47 1
  33   17   48 1
  34   18   19 1
  35   18   49 1
  36   18   50 1
  37   19   20 1
  38   20   51 1
  39   20   52 1
  40   21   22 ar
  41   21   26 ar
  42   22   23 ar
  43   22   27 1
  44   23   24 ar
  45   24   25 ar
  46   24   31 1
  47   25   26 ar
  48   26   53 1
  49   27   28 1
  50   27   29 1
  51   27   30 1
  52   31   54 1
  53   31   55 1
  54   32   56 1
  55   32   57 1
  56   32   58 1
  57   33   34 ar
  58   33   59 1
  59   34   35 ar
  60   34   60 1
  61   35   36 ar
  62   35   38 1
  63   36   37 ar
  64   36   61 1
  65   37   62 1
  66   38   39 1
  67   39   63 1
  68   39   64 1
  69   39   65 1

#	End of record

