#	Name: ASD05313229
#	Creating user name:	WinNT
#	Creation time:	15. 06. 2019 20:58

#	Modifying user name:	WinNT
#	Modification time:	15. 06. 2019 20:58

#	Program:	/corina/corina34_cracker 3.40 0067  02.08.2006

@<TRIPOS>MOLECULE
ASD05313229
  33   35    0    0    0
SMALL
NO_CHARGES


@<TRIPOS>ATOM
   1 C1            -0.0740     0.8178     1.0267 C.2     
   2 C2             0.1130    -0.6201     0.5977 C.3     
   3 N3             0.9273     1.7300     1.0531 N.pl3   
   4 N4             1.4556    -0.7208    -0.0034 N.am    
   5 C5             2.5695    -0.0398     0.6741 C.3     
   6 C6             2.3154     1.4716     0.6648 C.3     
   7 N7            -1.1711     1.3883     1.4271 N.2     
   8 C8            -0.9171     2.6736     1.7242 C.2     
   9 C9             0.3929     2.9045     1.4971 C.2     
  10 I10            1.4104     4.7143     1.7775 I       
  11 I11           -2.3104     4.0736     2.4226 I       
  12 C12            1.6564    -1.4166    -1.1401 C.2     
  13 O13            2.7485    -1.4067    -1.6739 O.2     
  14 C14            0.5490    -2.1916    -1.7373 C.ar    
  15 C15            0.3190    -2.1399    -3.1146 C.ar    
  16 C16           -0.7181    -2.8671    -3.6653 C.ar    
  17 C17           -1.5274    -3.6442    -2.8566 C.ar    
  18 C18           -1.3047    -3.6990    -1.4919 C.ar    
  19 C19           -0.2686    -2.9832    -0.9290 C.ar    
  20 C20           -0.9686    -2.8133    -5.1504 C.3     
  21 F21           -2.0627    -3.6251    -5.4685 F       
  22 F22           -1.2404    -1.4945    -5.5300 F       
  23 F23            0.1648    -3.2704    -5.8314 F       
  24 Cl24           1.3335    -1.1640    -4.1305 Cl      
  25 H25            0.0431    -1.2784     1.4637 H       
  26 H26           -0.6448    -0.8902    -0.1378 H       
  27 H27            2.6390    -0.3909     1.7036 H       
  28 H28            3.5009    -0.2559     0.1508 H       
  29 H29            2.4923     1.8639    -0.3367 H       
  30 H30            2.9877     1.9586     1.3712 H       
  31 H31           -2.3372    -4.2106    -3.2921 H       
  32 H32           -1.9412    -4.3074    -0.8665 H       
  33 H33           -0.0933    -3.0314     0.1356 H       
@<TRIPOS>BOND
   1    1    2 1
   2    1    3 1
   3    1    7 2
   4    2    4 1
   5    2   25 1
   6    2   26 1
   7    3    6 1
   8    3    9 1
   9    4    5 1
  10    4   12 am
  11    5    6 1
  12    5   27 1
  13    5   28 1
  14    6   29 1
  15    6   30 1
  16    7    8 1
  17    8    9 2
  18    8   11 1
  19    9   10 1
  20   12   13 2
  21   12   14 1
  22   14   15 ar
  23   14   19 ar
  24   15   16 ar
  25   15   24 1
  26   16   17 ar
  27   16   20 1
  28   17   18 ar
  29   17   31 1
  30   18   19 ar
  31   18   32 1
  32   19   33 1
  33   20   21 1
  34   20   22 1
  35   20   23 1

#	End of record

