#	Name: ASD01915823
#	Creating user name:	WinNT
#	Creation time:	15. 06. 2019 20:06

#	Modifying user name:	WinNT
#	Modification time:	15. 06. 2019 20:06

#	Program:	/corina/corina34_cracker 3.40 0067  02.08.2006

@<TRIPOS>MOLECULE
ASD01915823
  43   47    0    0    0
SMALL
NO_CHARGES


@<TRIPOS>ATOM
   1 C1            -0.0166     1.3738     0.0096 C.2     
   2 N2             0.0021    -0.0041     0.0020 N.pl3   
   3 C3            -1.2451    -0.7770     0.0110 C.3     
   4 C4            -2.3226     0.0140     0.7507 C.3     
   5 N5            -2.3975     1.4045     0.3184 N.am    
   6 C6            -1.2838     2.1199     0.0203 C.2     
   7 C7             1.2841     1.7914    -0.0006 C.2     
   8 C8             2.0433     0.6135    -0.0148 C.2     
   9 N9             1.2130    -0.4035    -0.0125 N.2     
  10 C10            3.5478     0.5291    -0.0309 C.3     
  11 O11            4.0989     1.8476    -0.0297 O.3     
  12 C12            5.4540     1.9499    -0.0433 C.ar    
  13 O13           -1.3305     3.3120    -0.2162 O.2     
  14 C14            6.0565     3.1996    -0.0430 C.ar    
  15 C15            6.2372     0.8049    -0.0518 C.ar    
  16 C16            7.6145     0.9116    -0.0657 C.ar    
  17 C17            8.2124     2.1582    -0.0711 C.ar    
  18 C18            7.4341     3.3009    -0.0569 C.ar    
  19 C19           -3.6345     2.0081     0.2046 C.2     
  20 O20           -3.8384     3.2795    -0.1824 O.3     
  21 C21           -5.1705     3.5144    -0.1749 C.ar    
  22 C22           -5.7804     2.3201     0.2376 C.ar    
  23 N23           -4.7782     1.4248     0.4522 N.2     
  24 C24           -5.9513     4.6192    -0.4744 C.ar    
  25 C25           -7.3248     4.5407    -0.3659 C.ar    
  26 C26           -7.9316     3.3624     0.0418 C.ar    
  27 C27           -7.1707     2.2544     0.3427 C.ar    
  28 H28           -1.5672    -0.9602    -1.0140 H       
  29 H29           -1.0801    -1.7283     0.5169 H       
  30 H30           -3.2885    -0.4606     0.5780 H       
  31 H31           -2.1066    -0.0111     1.8188 H       
  32 H32            1.6482     2.8082     0.0018 H       
  33 H33            3.8911    -0.0090     0.8527 H       
  34 H34            3.8725     0.0005    -0.9272 H       
  35 H35            5.4489     4.0925    -0.0322 H       
  36 H36            5.7706    -0.1691    -0.0473 H       
  37 H37            8.2246     0.0205    -0.0720 H       
  38 H38            9.2893     2.2395    -0.0820 H       
  39 H39            7.9035     4.2736    -0.0615 H       
  40 H40           -5.4856     5.5405    -0.7919 H       
  41 H41           -7.9313     5.4031    -0.5998 H       
  42 H42           -9.0074     3.3130     0.1234 H       
  43 H43           -7.6477     1.3389     0.6599 H       
@<TRIPOS>BOND
   1    1    2 1
   2    1    7 2
   3    1    6 1
   4    2    3 1
   5    2    9 1
   6    3    4 1
   7    3   28 1
   8    3   29 1
   9    4    5 1
  10    4   30 1
  11    4   31 1
  12    5    6 am
  13    5   19 1
  14    6   13 2
  15    7    8 1
  16    7   32 1
  17    8    9 2
  18    8   10 1
  19   10   11 1
  20   10   33 1
  21   10   34 1
  22   11   12 1
  23   12   14 ar
  24   12   15 ar
  25   14   18 ar
  26   14   35 1
  27   15   16 ar
  28   15   36 1
  29   16   17 ar
  30   16   37 1
  31   17   18 ar
  32   17   38 1
  33   18   39 1
  34   19   20 1
  35   19   23 2
  36   20   21 1
  37   21   22 ar
  38   21   24 ar
  39   22   23 1
  40   22   27 ar
  41   24   25 ar
  42   24   40 1
  43   25   26 ar
  44   25   41 1
  45   26   27 ar
  46   26   42 1
  47   27   43 1

#	End of record

