#	Name: ASD07300914
#	Creating user name:	WinNT
#	Creation time:	15. 06. 2019 21:10

#	Modifying user name:	WinNT
#	Modification time:	15. 06. 2019 21:10

#	Program:	/corina/corina34_cracker 3.40 0067  02.08.2006

@<TRIPOS>MOLECULE
ASD07300914
  49   53    0    0    0
SMALL
NO_CHARGES


@<TRIPOS>ATOM
   1 N1             0.2072     0.8014    -0.5603 N.am    
   2 C2             0.0518    -0.5364    -0.3946 C.2     
   3 N3             1.0451    -1.3756    -0.4289 N.2     
   4 C4             2.3085    -0.9706    -0.6337 C.2     
   5 C5             2.5678     0.3968    -0.8163 C.2     
   6 C6             1.4373     1.3243    -0.7737 C.2     
   7 N7             3.5057    -1.6068    -0.7162 N.pl3   
   8 N8             4.4991    -0.6469    -0.9473 N.2     
   9 C9             3.9549     0.5371    -1.0078 C.2     
  10 O10            1.5970     2.5226    -0.9255 O.2     
  11 C11            3.7212    -3.0500    -0.5852 C.3     
  12 C12            4.2247    -3.6133    -1.9156 C.3     
  13 C13            4.4497    -5.1204    -1.7788 C.3     
  14 C14            5.4891    -5.3839    -0.6874 C.3     
  15 C15            4.9856    -4.8206     0.6430 C.3     
  16 C16            4.7606    -3.3134     0.5062 C.3     
  17 F17            5.6948    -6.7621    -0.5623 F       
  18 F18            6.6941    -4.7618    -1.0311 F       
  19 C19           -1.3359    -1.0749    -0.1594 C.3     
  20 C20           -1.4997    -2.5509    -0.5586 C.3     
  21 C21           -2.3572    -2.7165     0.7071 C.3     
  22 C22           -1.5860    -1.5209     1.2909 C.3     
  23 C23           -0.3308    -1.9134     2.0267 C.2     
  24 C24            0.0334    -1.5265     3.2726 C.2     
  25 C25            1.2759    -2.1683     3.4802 C.2     
  26 N26            1.5262    -2.8440     2.3960 N.2     
  27 O27            0.6428    -2.7190     1.5797 O.3     
  28 C28            2.1399    -2.0859     4.7122 C.3     
  29 H29           -0.5671     1.3849    -0.5296 H       
  30 H30            4.4792     1.4662    -1.1760 H       
  31 H31            2.7823    -3.5347    -0.3174 H       
  32 H32            3.4842    -3.4256    -2.6931 H       
  33 H33            5.1635    -3.1286    -2.1834 H       
  34 H34            3.5108    -5.6051    -1.5111 H       
  35 H35            4.8084    -5.5218    -2.7267 H       
  36 H36            4.0467    -5.3053     0.9108 H       
  37 H37            5.7261    -5.0083     1.4205 H       
  38 H38            5.6994    -2.8287     0.2385 H       
  39 H39            4.4019    -2.9121     1.4541 H       
  40 H40           -2.1151    -0.4256    -0.5585 H       
  41 H41           -2.0563    -2.6936    -1.4848 H       
  42 H42           -0.5682    -3.1164    -0.5320 H       
  43 H43           -3.4165    -2.5162     0.5462 H       
  44 H44           -2.1780    -3.6522     1.2366 H       
  45 H45           -2.2123    -0.8321     1.8577 H       
  46 H46           -0.5015    -0.8779     3.9505 H       
  47 H47            1.9212    -2.9298     5.3665 H       
  48 H48            3.1902    -2.1139     4.4220 H       
  49 H49            1.9333    -1.1545     5.2393 H       
@<TRIPOS>BOND
   1    1    2 1
   2    1    6 am
   3    1   29 1
   4    2    3 2
   5    2   19 1
   6    3    4 1
   7    4    5 2
   8    4    7 1
   9    5    6 1
  10    5    9 1
  11    6   10 2
  12    7    8 1
  13    7   11 1
  14    8    9 2
  15    9   30 1
  16   11   12 1
  17   11   16 1
  18   11   31 1
  19   12   13 1
  20   12   32 1
  21   12   33 1
  22   13   14 1
  23   13   34 1
  24   13   35 1
  25   14   15 1
  26   14   17 1
  27   14   18 1
  28   15   16 1
  29   15   36 1
  30   15   37 1
  31   16   38 1
  32   16   39 1
  33   19   20 1
  34   19   22 1
  35   19   40 1
  36   20   21 1
  37   20   41 1
  38   20   42 1
  39   21   22 1
  40   21   43 1
  41   21   44 1
  42   22   23 1
  43   22   45 1
  44   23   24 2
  45   23   27 1
  46   24   25 1
  47   24   46 1
  48   25   26 2
  49   25   28 1
  50   26   27 1
  51   28   47 1
  52   28   48 1
  53   28   49 1

#	End of record

