#	Name: ASD01881980
#	Creating user name:	WinNT
#	Creation time:	15. 06. 2019 19:43

#	Modifying user name:	WinNT
#	Modification time:	15. 06. 2019 19:43

#	Program:	/corina/corina34_cracker 3.40 0067  02.08.2006

@<TRIPOS>MOLECULE
ASD01881980
  47   50    0    0    0
SMALL
NO_CHARGES


@<TRIPOS>ATOM
   1 N1             0.4986     0.0554    -0.6928 N.pl3   
   2 N2             0.6543    -1.1468    -0.2572 N.2     
   3 N3             1.8645    -1.3641     0.1216 N.2     
   4 C4             2.5951    -0.2457    -0.0615 C.ar    
   5 C5             1.7064     0.7041    -0.6000 C.ar    
   6 C6             3.9288     0.1067     0.1614 C.ar    
   7 C7             4.3555     1.3826    -0.1503 C.ar    
   8 C8             3.4665     2.3133    -0.6826 C.ar    
   9 C9             2.1595     1.9808    -0.9060 C.ar    
  10 O10            5.6519     1.7326     0.0643 O.3     
  11 C11            6.0014     3.0991    -0.1651 C.3     
  12 C12            7.2284     3.4596     0.6748 C.3     
  13 N13            6.9158     3.2833     2.0993 N.3     
  14 C14            5.8927     4.2441     2.5369 C.3     
  15 C15            5.5546     3.9868     4.0077 C.3     
  16 O16            6.7494     4.0748     4.7888 O.3     
  17 C17            7.7671     3.1525     4.3901 C.3     
  18 C18            8.1276     3.4014     2.9232 C.3     
  19 C19            6.3206     3.3019    -1.6476 C.3     
  20 C20           -0.7483     0.6296    -1.2043 C.3     
  21 C21           -1.5265     1.2676    -0.0519 C.3     
  22 C22           -2.8080     2.0276    -0.4000 C.3     
  23 C23           -2.8903     0.6680     0.2970 C.3     
  24 Br24           5.1395    -1.1531     0.8844 Br      
  25 H25            3.8133     3.3078    -0.9215 H       
  26 H26            1.4794     2.7108    -1.3194 H       
  27 H27            5.1664     3.7401     0.1178 H       
  28 H28            8.0594     2.8090     0.4020 H       
  29 H29            7.5037     4.4977     0.4890 H       
  30 H30            6.2741     5.2589     2.4233 H       
  31 H31            4.9954     4.1218     1.9304 H       
  32 H32            4.8386     4.7328     4.3525 H       
  33 H33            5.1233     2.9913     4.1133 H       
  34 H34            8.6512     3.2951     5.0115 H       
  35 H35            7.4001     2.1328     4.5068 H       
  36 H36            8.8617     2.6639     2.5986 H       
  37 H37            8.5447     4.4027     2.8157 H       
  38 H38            6.5872     4.3442    -1.8226 H       
  39 H39            7.1556     2.6609    -1.9305 H       
  40 H40            5.4465     3.0451    -2.2459 H       
  41 H41           -0.5188     1.3888    -1.9520 H       
  42 H42           -1.3511    -0.1570    -1.6583 H       
  43 H43           -0.9206     1.6519     0.7686 H       
  44 H44           -3.0453     2.9117     0.1917 H       
  45 H45           -3.0966     2.0730    -1.4501 H       
  46 H46           -3.2330    -0.1809    -0.2945 H       
  47 H47           -3.1817     0.6578     1.3473 H       
@<TRIPOS>BOND
   1    1    2 1
   2    1    5 1
   3    1   20 1
   4    2    3 2
   5    3    4 1
   6    4    5 ar
   7    4    6 ar
   8    5    9 ar
   9    6    7 ar
  10    6   24 1
  11    7    8 ar
  12    7   10 1
  13    8    9 ar
  14    8   25 1
  15    9   26 1
  16   10   11 1
  17   11   12 1
  18   11   19 1
  19   11   27 1
  20   12   13 1
  21   12   28 1
  22   12   29 1
  23   13   14 1
  24   13   18 1
  25   14   15 1
  26   14   30 1
  27   14   31 1
  28   15   16 1
  29   15   32 1
  30   15   33 1
  31   16   17 1
  32   17   18 1
  33   17   34 1
  34   17   35 1
  35   18   36 1
  36   18   37 1
  37   19   38 1
  38   19   39 1
  39   19   40 1
  40   20   21 1
  41   20   41 1
  42   20   42 1
  43   21   22 1
  44   21   23 1
  45   21   43 1
  46   22   23 1
  47   22   44 1
  48   22   45 1
  49   23   46 1
  50   23   47 1

#	End of record

