#	Name: ASD05143090
#	Creating user name:	WinNT
#	Creation time:	15. 06. 2019 20:57

#	Modifying user name:	WinNT
#	Modification time:	15. 06. 2019 20:57

#	Program:	/corina/corina34_cracker 3.40 0067  02.08.2006

@<TRIPOS>MOLECULE
ASD05143090
 147  150    0    0    0
SMALL
NO_CHARGES


@<TRIPOS>ATOM
   1 C1            -1.5919     3.5098    -0.4298 C.2     
   2 C2            -1.7965     2.0778    -0.0073 C.3     
   3 N3            -0.3878     4.0940    -0.2701 N.am    
   4 O4            -2.5092     4.1350    -0.9181 O.2     
   5 C5            -0.1889     5.4861    -0.6808 C.3     
   6 C6            -1.1448     6.3899     0.1004 C.3     
   7 C7            -0.4652     5.6189    -2.1563 C.2     
   8 C8            -0.7834     6.3508     1.5866 C.3     
   9 C9            -1.7393     7.2546     2.3678 C.3     
  10 N10           -1.3933     7.2172     3.7909 N.pl3   
  11 C11           -2.1194     7.9564     4.6945 C.2     
  12 N12           -1.7947     7.9212     6.0300 N.pl3   
  13 N13           -3.1156     8.6905     4.2851 N.2     
  14 O14           -1.1276     4.7786    -2.7273 O.2     
  15 N15            0.0239     6.6715    -2.8414 N.am    
  16 C16           -0.2447     6.8006    -4.2758 C.3     
  17 C17           -0.1588     8.2735    -4.6799 C.3     
  18 C18           -0.9401     8.4932    -5.9495 C.2     
  19 N19           -1.6056     9.6682    -6.1221 N.am    
  20 C20           -2.3478     9.8271    -7.3885 C.3     
  21 C21           -2.0875    11.2300    -7.9412 C.3     
  22 C22           -1.5458    11.1235    -9.3681 C.3     
  23 C23           -0.1889    11.8253    -9.4525 C.3     
  24 C24            0.1924    12.0229   -10.9210 C.3     
  25 N25            1.6446    12.2746   -11.0076 N.am    
  26 C26           -0.5588    13.2021   -11.4833 C.2     
  27 N27           -1.8417    13.0609   -11.8716 N.am    
  28 O28           -0.0089    14.2781   -11.5864 O.2     
  29 C29            2.4130    11.2513   -11.4720 C.2     
  30 O30            1.9050    10.1974   -11.7915 O.2     
  31 C31            3.9032    11.4459   -11.5842 C.3     
  32 N32            4.5538    10.1156   -11.5955 N.am    
  33 C33            4.2280    12.1876   -12.8823 C.3     
  34 C34            5.3235     9.8317   -10.5033 C.2     
  35 O35            5.4455    10.6398    -9.6072 O.2     
  36 C36            6.0179     8.4961   -10.4314 C.3     
  37 N37            6.2145     8.1382    -9.0122 N.am    
  38 C38            5.1557     7.4323   -11.1139 C.3     
  39 C39            5.8040     6.8963    -8.6351 C.2     
  40 O40            5.3141     6.1384    -9.4454 O.2     
  41 C41            5.9670     6.4761    -7.1970 C.3     
  42 C42            5.7037    12.4888   -12.9330 C.2     
  43 C43            6.7601    11.5925   -13.4091 C.ar    
  44 C44            7.9659    12.3029   -13.2668 C.ar    
  45 N45            7.6511    13.5366   -12.7427 N.pl3   
  46 C46            6.2989    13.6314   -12.5560 C.2     
  47 C47            6.7727    10.2946   -13.9238 C.ar    
  48 C48            7.9581     9.7206   -14.2873 C.ar    
  49 C49            9.1508    10.4174   -14.1485 C.ar    
  50 C50            9.1612    11.6990   -13.6437 C.ar    
  51 N51            4.8588     5.5592    -6.8449 N.am    
  52 C52            5.9202     7.7095    -6.2929 C.3     
  53 C53            7.0915     8.6052    -6.6041 C.ar    
  54 C54            6.8754     9.8759    -7.1032 C.ar    
  55 C55            7.9506    10.6993    -7.3889 C.ar    
  56 C56            9.2439    10.2480    -7.1738 C.ar    
  57 C57            9.4569     8.9750    -6.6738 C.ar    
  58 C58            8.3809     8.1572    -6.3846 C.ar    
  59 C59            0.7740     6.0054    -5.0509 C.2     
  60 O60            0.4854     5.5154    -6.1221 O.2     
  61 C61            3.7678     7.4109   -10.4704 C.3     
  62 C62            2.8808     6.4034   -11.2046 C.3     
  63 N63            1.5518     6.3828   -10.5885 N.pl3   
  64 C64            0.5779     5.5475   -11.0824 C.2     
  65 N65            0.8512     4.7314   -12.1546 N.pl3   
  66 N66           -0.6045     5.5292   -10.5342 N.2     
  67 N67            2.0227     5.8449    -4.5329 N.am    
  68 C68            2.9711     5.0448    -5.3329 C.3     
  69 C69            4.1176     5.9261    -5.7572 C.2     
  70 O70            4.3775     6.9405    -5.1452 O.2     
  71 C71            2.2608     4.4964    -6.5721 C.3     
  72 C72            1.2071     3.4727    -6.1447 C.3     
  73 C73            0.4141     3.0353    -7.3492 C.2     
  74 F74            7.7403    11.9412    -7.8772 F       
  75 O75           -0.9753     7.6353    -6.8060 O.2     
  76 F76           10.2949    11.0498    -7.4523 F       
  77 O77            0.6668     3.4969    -8.4419 O.2     
  78 N78           -0.5760     2.1312    -7.2121 N.am    
  79 H79           -0.8664     1.6831     0.4015 H       
  80 H80           -2.5762     2.0312     0.7530 H       
  81 H81           -2.0950     1.4833    -0.8708 H       
  82 H82            0.3470     3.5927     0.1168 H       
  83 H83            0.8400     5.7819    -0.4758 H       
  84 H84           -1.0600     7.4125    -0.2674 H       
  85 H85           -2.1680     6.0391    -0.0341 H       
  86 H86           -0.8682     5.3282     1.9543 H       
  87 H87            0.2398     6.7016     1.7211 H       
  88 H88           -1.6546     8.2772     2.0000 H       
  89 H89           -2.7625     6.9038     2.2333 H       
  90 H90           -0.6520     6.6709     4.0955 H       
  91 H91           -1.0534     7.3749     6.3347 H       
  92 H92           -2.3070     8.4428     6.6676 H       
  93 H93           -3.6279     9.2120     4.9227 H       
  94 H94            0.5536     7.3436    -2.3848 H       
  95 H95           -1.2433     6.4218    -4.4939 H       
  96 H96           -0.5750     8.8930    -3.8855 H       
  97 H97            0.8841     8.5450    -4.8436 H       
  98 H98           -1.5926    10.3654    -5.4478 H       
  99 H99           -2.0069     9.0822    -8.1075 H       
 100 H100          -3.4146     9.6990    -7.2051 H       
 101 H101          -3.0187    11.7966    -7.9474 H       
 102 H102          -1.3569    11.7386    -7.3122 H       
 103 H103          -1.4288    10.0732    -9.6348 H       
 104 H104          -2.2437    11.5979   -10.0580 H       
 105 H105          -0.2502    12.7954    -8.9593 H       
 106 H106           0.5675    11.2143    -8.9598 H       
 107 H107          -0.0570    11.1253   -11.4869 H       
 108 H108           2.0313    13.1253   -10.7474 H       
 109 H109          -2.2815    12.2003   -11.7891 H       
 110 H110          -2.3252    13.8200   -12.2335 H       
 111 H111           4.2623    12.0216   -10.7311 H       
 112 H112           4.4410     9.4892   -12.3275 H       
 113 H113           3.9547    11.5653   -13.7345 H       
 114 H114           3.6653    13.1204   -12.9184 H       
 115 H115           6.9854     8.5600   -10.9294 H       
 116 H116           6.6158     8.7561    -8.3813 H       
 117 H117           5.0611     7.6668   -12.1742 H       
 118 H118           5.6249     6.4553   -10.9984 H       
 119 H119           6.9205     5.9630    -7.0715 H       
 120 H120           8.2920    14.2358   -12.5396 H       
 121 H121           5.7871    14.4947   -12.1570 H       
 122 H122           5.8488     9.7463   -14.0340 H       
 123 H123           7.9673     8.7167   -14.6854 H       
 124 H124          10.0799     9.9500   -14.4398 H       
 125 H125          10.0943    12.2328   -13.5399 H       
 126 H126           4.6717     4.7536    -7.3518 H       
 127 H127           4.9912     8.2525    -6.4670 H       
 128 H128           5.9686     7.3974    -5.2497 H       
 129 H129           5.8676    10.2261    -7.2707 H       
 130 H130          10.4637     8.6223    -6.5058 H       
 131 H131           8.5477     7.1640    -5.9946 H       
 132 H132           3.8571     7.1210    -9.4235 H       
 133 H133           3.3216     8.4032   -10.5359 H       
 134 H134           2.7914     6.6932   -12.2516 H       
 135 H135           3.3270     5.4110   -11.1392 H       
 136 H136           1.3590     6.9586    -9.8320 H       
 137 H137           1.7312     4.7450   -12.5626 H       
 138 H138           0.1641     4.1421   -12.5031 H       
 139 H139          -1.2916     4.9398   -10.8827 H       
 140 H140           2.2762     6.2362    -3.6823 H       
 141 H141           3.3494     4.2183    -4.7313 H       
 142 H142           1.7770     5.3147    -7.1055 H       
 143 H143           2.9891     4.0168    -7.2259 H       
 144 H144           1.6999     2.6079    -5.7004 H       
 145 H145           0.5371     3.9247    -5.4132 H       
 146 H146          -0.7781     1.7620    -6.3382 H       
 147 H147          -1.0864     1.8496    -7.9874 H       
@<TRIPOS>BOND
   1    1    2 1
   2    1    3 am
   3    1    4 2
   4    2   79 1
   5    2   80 1
   6    2   81 1
   7    3    5 1
   8    3   82 1
   9    5    6 1
  10    5    7 1
  11    5   83 1
  12    6    8 1
  13    6   84 1
  14    6   85 1
  15    7   14 2
  16    7   15 am
  17    8    9 1
  18    8   86 1
  19    8   87 1
  20    9   10 1
  21    9   88 1
  22    9   89 1
  23   10   11 1
  24   10   90 1
  25   11   12 1
  26   11   13 2
  27   12   91 1
  28   12   92 1
  29   13   93 1
  30   15   16 1
  31   15   94 1
  32   16   17 1
  33   16   59 1
  34   16   95 1
  35   17   18 1
  36   17   96 1
  37   17   97 1
  38   18   19 am
  39   18   75 2
  40   19   20 1
  41   19   98 1
  42   20   21 1
  43   20   99 1
  44   20  100 1
  45   21   22 1
  46   21  101 1
  47   21  102 1
  48   22   23 1
  49   22  103 1
  50   22  104 1
  51   23   24 1
  52   23  105 1
  53   23  106 1
  54   24   25 1
  55   24   26 1
  56   24  107 1
  57   25   29 am
  58   25  108 1
  59   26   27 am
  60   26   28 2
  61   27  109 1
  62   27  110 1
  63   29   30 2
  64   29   31 1
  65   31   32 1
  66   31   33 1
  67   31  111 1
  68   32   34 am
  69   32  112 1
  70   33   42 1
  71   33  113 1
  72   33  114 1
  73   34   35 2
  74   34   36 1
  75   36   37 1
  76   36   38 1
  77   36  115 1
  78   37   39 am
  79   37  116 1
  80   38   61 1
  81   38  117 1
  82   38  118 1
  83   39   40 2
  84   39   41 1
  85   41   51 1
  86   41   52 1
  87   41  119 1
  88   42   43 1
  89   42   46 2
  90   43   44 ar
  91   43   47 ar
  92   44   45 1
  93   44   50 ar
  94   45   46 1
  95   45  120 1
  96   46  121 1
  97   47   48 ar
  98   47  122 1
  99   48   49 ar
 100   48  123 1
 101   49   50 ar
 102   49  124 1
 103   50  125 1
 104   51   69 am
 105   51  126 1
 106   52   53 1
 107   52  127 1
 108   52  128 1
 109   53   54 ar
 110   53   58 ar
 111   54   55 ar
 112   54  129 1
 113   55   56 ar
 114   55   74 1
 115   56   57 ar
 116   56   76 1
 117   57   58 ar
 118   57  130 1
 119   58  131 1
 120   59   60 2
 121   59   67 am
 122   61   62 1
 123   61  132 1
 124   61  133 1
 125   62   63 1
 126   62  134 1
 127   62  135 1
 128   63   64 1
 129   63  136 1
 130   64   65 1
 131   64   66 2
 132   65  137 1
 133   65  138 1
 134   66  139 1
 135   67   68 1
 136   67  140 1
 137   68   69 1
 138   68   71 1
 139   68  141 1
 140   69   70 2
 141   71   72 1
 142   71  142 1
 143   71  143 1
 144   72   73 1
 145   72  144 1
 146   72  145 1
 147   73   77 2
 148   73   78 am
 149   78  146 1
 150   78  147 1

#	End of record

