#	Name: ASD01913843
#	Creating user name:	WinNT
#	Creation time:	15. 06. 2019 20:02

#	Modifying user name:	WinNT
#	Modification time:	15. 06. 2019 20:02

#	Program:	/corina/corina34_cracker 3.40 0067  02.08.2006

@<TRIPOS>MOLECULE
ASD01913843
  45   47    0    0    0
SMALL
NO_CHARGES


@<TRIPOS>ATOM
   1 C1            -0.2207     1.4151     0.2182 C.ar    
   2 C2            -0.1406    -0.0130     0.1486 C.1     
   3 C3            -0.0749    -1.1837     0.0915 C.1     
   4 C4             0.0053    -2.6118     0.0219 C.ar    
   5 C5             0.0873    -3.2608    -1.2191 C.ar    
   6 C6             0.1560    -5.3344    -0.0290 C.ar    
   7 N7             0.0830    -4.6927     1.1273 N.ar    
   8 C8             0.0089    -3.3793     1.1887 C.ar    
   9 C9             0.1632    -4.6391    -1.2345 C.ar    
  10 N10            0.2331    -6.7251    -0.0385 N.am    
  11 C11           -0.3021     2.0536     1.4586 C.ar    
  12 C12           -0.3791     3.4289     1.5190 C.ar    
  13 C13           -0.2896     3.5508    -0.8803 C.ar    
  14 C14           -0.2121     2.1762    -0.9539 C.ar    
  15 C15           -0.3759     4.1780     0.3528 C.ar    
  16 C16           -0.8981    -7.4460    -0.0261 C.2     
  17 N17           -0.9003    -8.7874    -0.0232 N.am    
  18 C18            0.3484    -9.5509    -0.0461 C.3     
  19 C19            1.4509    -8.7321     0.6339 C.3     
  20 C20            1.5467    -7.3702    -0.0678 C.3     
  21 O21           -1.9635    -6.8604    -0.0167 O.2     
  22 C22            0.1548   -10.8702     0.7041 C.3     
  23 C23            0.7453    -9.8387    -1.4954 C.3     
  24 C24           -2.1785    -9.5027     0.0038 C.3     
  25 F25           -0.4516     5.5252     0.4184 F       
  26 H26            0.0905    -2.6961    -2.1398 H       
  27 H27           -0.0493    -2.8911     2.1503 H       
  28 H28            0.2270    -5.1719    -2.1717 H       
  29 H29           -0.3051     1.4710     2.3680 H       
  30 H30           -0.4424     3.9235     2.4770 H       
  31 H31           -0.2830     4.1402    -1.7853 H       
  32 H32           -0.1445     1.6887    -1.9152 H       
  33 H33            1.2044    -8.5889     1.6859 H       
  34 H34            2.4027    -9.2559     0.5462 H       
  35 H35            1.8655    -7.5140    -1.1002 H       
  36 H36            2.2691    -6.7420     0.4534 H       
  37 H37           -0.6335   -11.4494     0.2232 H       
  38 H38            1.0850   -11.4380     0.6866 H       
  39 H39           -0.1251   -10.6632     1.7370 H       
  40 H40            0.8855    -8.8978    -2.0274 H       
  41 H41            1.6751   -10.4072    -1.5114 H       
  42 H42           -0.0421   -10.4162    -1.9799 H       
  43 H43           -2.9973    -8.7834     0.0186 H       
  44 H44           -2.2624   -10.1304    -0.8834 H       
  45 H45           -2.2269   -10.1267     0.8962 H       
@<TRIPOS>BOND
   1    1    2 1
   2    1   11 ar
   3    1   14 ar
   4    2    3 3
   5    3    4 1
   6    4    5 ar
   7    4    8 ar
   8    5    9 ar
   9    5   26 1
  10    6    7 ar
  11    6   10 1
  12    6    9 ar
  13    7    8 ar
  14    8   27 1
  15    9   28 1
  16   10   16 am
  17   10   20 1
  18   11   12 ar
  19   11   29 1
  20   12   15 ar
  21   12   30 1
  22   13   14 ar
  23   13   15 ar
  24   13   31 1
  25   14   32 1
  26   15   25 1
  27   16   17 am
  28   16   21 2
  29   17   18 1
  30   17   24 1
  31   18   19 1
  32   18   22 1
  33   18   23 1
  34   19   20 1
  35   19   33 1
  36   19   34 1
  37   20   35 1
  38   20   36 1
  39   22   37 1
  40   22   38 1
  41   22   39 1
  42   23   40 1
  43   23   41 1
  44   23   42 1
  45   24   43 1
  46   24   44 1
  47   24   45 1

#	End of record

