#	Name: ASD08070209
#	Creating user name:	WinNT
#	Creation time:	15. 06. 2019 21:14

#	Modifying user name:	WinNT
#	Modification time:	15. 06. 2019 21:14

#	Program:	/corina/corina34_cracker 3.40 0067  02.08.2006

@<TRIPOS>MOLECULE
ASD08070209
  39   40    0    0    0
SMALL
NO_CHARGES


@<TRIPOS>ATOM
   1 C1            -0.0179     1.4712     0.0101 C.ar    
   2 C2             0.0021    -0.0041     0.0020 C.2     
   3 O3            -1.0425    -0.6263     0.0086 O.2     
   4 N4             1.1783    -0.6620    -0.0127 N.am    
   5 C5             1.1981    -2.1268    -0.0208 C.3     
   6 C6             2.5064    -2.6157    -0.6456 C.3     
   7 C7             2.5271    -4.1455    -0.6540 C.3     
   8 C8             1.1796     2.1899     0.0026 C.ar    
   9 C9             1.1541     3.5679     0.0097 C.ar    
  10 C10           -0.0544     4.2444     0.0249 C.ar    
  11 C11           -1.2459     3.5461     0.0325 C.ar    
  12 C12            1.0930    -2.6462     1.4145 C.3     
  13 C13            1.1138    -4.1760     1.4061 C.3     
  14 C14            2.4221    -4.6649     0.7813 C.3     
  15 C15           -1.2390     2.1595     0.0196 C.ar    
  16 O16           -2.4085     1.4723     0.0266 O.3     
  17 C17           -0.0693     5.7513     0.0336 C.3     
  18 C18            2.4428    -6.1948     0.7729 C.3     
  19 H19            2.0116    -0.1656    -0.0180 H       
  20 H20            0.3557    -2.4984    -0.6042 H       
  21 H21            2.5812    -2.2457    -1.6681 H       
  22 H22            3.3488    -2.2441    -0.0622 H       
  23 H23            1.6847    -4.5171    -1.2374 H       
  24 H24            3.4592    -4.4938    -1.0991 H       
  25 H25            2.1243     1.6666    -0.0085 H       
  26 H26            2.0806     4.1228     0.0039 H       
  27 H27           -2.1842     4.0807     0.0447 H       
  28 H28            1.9354    -2.2746     1.9979 H       
  29 H29            0.1610    -2.2979     1.8596 H       
  30 H30            1.0389    -4.5461     2.4286 H       
  31 H31            0.2714    -4.5476     0.8227 H       
  32 H32            3.2645    -4.2933     1.3647 H       
  33 H33           -2.7577     1.2812    -0.8546 H       
  34 H34           -0.0825     6.1205    -0.9919 H       
  35 H35           -0.9580     6.1029     0.5578 H       
  36 H36            0.8218     6.1205     0.5412 H       
  37 H37            1.6004    -6.5663     0.1895 H       
  38 H38            3.3748    -6.5430     0.3278 H       
  39 H39            2.3680    -6.5648     1.7954 H       
@<TRIPOS>BOND
   1    1    2 1
   2    1    8 ar
   3    1   15 ar
   4    2    3 2
   5    2    4 am
   6    4    5 1
   7    4   19 1
   8    5    6 1
   9    5   12 1
  10    5   20 1
  11    6    7 1
  12    6   21 1
  13    6   22 1
  14    7   14 1
  15    7   23 1
  16    7   24 1
  17    8    9 ar
  18    8   25 1
  19    9   10 ar
  20    9   26 1
  21   10   11 ar
  22   10   17 1
  23   11   15 ar
  24   11   27 1
  25   12   13 1
  26   12   28 1
  27   12   29 1
  28   13   14 1
  29   13   30 1
  30   13   31 1
  31   14   18 1
  32   14   32 1
  33   15   16 1
  34   16   33 1
  35   17   34 1
  36   17   35 1
  37   17   36 1
  38   18   37 1
  39   18   38 1
  40   18   39 1

#	End of record

