#	Name: ASD02900007
#	Creating user name:	WinNT
#	Creation time:	15. 06. 2019 20:26

#	Modifying user name:	WinNT
#	Modification time:	15. 06. 2019 20:26

#	Program:	/corina/corina34_cracker 3.40 0067  02.08.2006

@<TRIPOS>MOLECULE
ASD02900007
  17   16    0    0    0
SMALL
NO_CHARGES


@<TRIPOS>ATOM
   1 C1            -0.0184     1.5028     0.0103 C.2     
   2 C2             0.0021    -0.0041     0.0020 C.3     
   3 C3            -0.7241    -0.5171    -1.2431 C.3     
   4 O4            -0.8068    -1.9428    -1.1928 O.3     
   5 P5            -1.5096    -2.8217    -2.3442 P.3     
   6 O6            -0.6795    -2.6719    -3.7155 O.3     
   7 O7            -1.5351    -4.3685    -1.8984 O.3     
   8 O8            -2.8953    -2.3452    -2.5518 O.2     
   9 O9             1.0191     2.1207     0.0037 O.2     
  10 O10            1.3556    -0.4620    -0.0134 O.3     
  11 H11           -0.9609     2.0300     0.0176 H       
  12 H12           -0.4983    -0.3791     0.8948 H       
  13 H13           -1.7288    -0.0959    -1.2772 H       
  14 H14           -0.1736    -0.2164    -2.1345 H       
  15 H15            0.2396    -2.9661    -3.6531 H       
  16 H16           -1.9454    -4.9578    -2.5461 H       
  17 H17            1.8624    -0.1655    -0.7817 H       
@<TRIPOS>BOND
   1    1    2 1
   2    1    9 2
   3    1   11 1
   4    2    3 1
   5    2   10 1
   6    2   12 1
   7    3    4 1
   8    3   13 1
   9    3   14 1
  10    4    5 1
  11    5    6 1
  12    5    7 1
  13    5    8 2
  14    6   15 1
  15    7   16 1
  16   10   17 1

#	End of record

