#	Name: ASD01912255
#	Creating user name:	WinNT
#	Creation time:	15. 06. 2019 19:59

#	Modifying user name:	WinNT
#	Modification time:	15. 06. 2019 19:59

#	Program:	/corina/corina34_cracker 3.40 0067  02.08.2006

@<TRIPOS>MOLECULE
ASD01912255
  42   44    0    0    0
SMALL
NO_CHARGES


@<TRIPOS>ATOM
   1 C1            -0.0168     1.3887     0.0097 C.ar    
   2 C2             0.0021    -0.0041     0.0020 C.ar    
   3 C3             1.2216    -0.6645    -0.0132 C.ar    
   4 C4             2.3825     0.0883    -0.0202 C.ar    
   5 C5             2.2940     1.4792    -0.0119 C.ar    
   6 N6             1.1177     2.0810     0.0026 N.ar    
   7 C7            -1.2703     2.0811     0.0193 C.1     
   8 N8            -2.2646     2.6304     0.0270 N.1     
   9 N9             3.4560     2.2417    -0.0184 N.3     
  10 C10            3.1439     3.6764    -0.0078 C.3     
  11 C11            4.4303     4.4755     0.2297 C.3     
  12 C12            5.4523     4.0465    -0.8022 C.2     
  13 C13            5.6793     2.5618    -0.9957 C.3     
  14 C14            4.3135     1.8843    -1.1554 C.3     
  15 C15            6.1287     4.9452    -1.5162 C.2     
  16 C16            7.0898     4.5129    -2.4858 C.1     
  17 C17            7.8776     4.1585    -3.2808 C.1     
  18 C18            8.8387     3.7263    -4.2504 C.ar    
  19 C19            9.5457     4.6734    -4.9969 C.ar    
  20 C20           10.4701     4.2391    -5.9291 C.ar    
  21 C21           10.6608     2.8727    -6.0879 C.ar    
  22 C22            9.9276     1.9897    -5.3164 C.ar    
  23 N23            9.0562     2.4267    -4.4306 N.ar    
  24 C24           10.1330     0.5066    -5.4872 C.3     
  25 H25           -0.9220    -0.5631     0.0082 H       
  26 H26            1.2642    -1.7437    -0.0190 H       
  27 H27            3.3473    -0.3969    -0.0316 H       
  28 H28            2.7107     3.9613    -0.9666 H       
  29 H29            2.4321     3.8877     0.7902 H       
  30 H30            4.2261     5.5410     0.1239 H       
  31 H31            4.8105     4.2712     1.2306 H       
  32 H32            6.2791     2.3952    -1.8905 H       
  33 H33            6.1935     2.1522    -0.1263 H       
  34 H34            4.4455     0.8027    -1.1853 H       
  35 H35            3.8474     2.2196    -2.0818 H       
  36 H36            5.9523     5.9997    -1.3637 H       
  37 H37            9.3722     5.7289    -4.8480 H       
  38 H38           11.0312     4.9471    -6.5209 H       
  39 H39           11.3754     2.5028    -6.8082 H       
  40 H40           10.9165     0.1679    -4.8093 H       
  41 H41            9.2046    -0.0173    -5.2601 H       
  42 H42           10.4266     0.2965    -6.5157 H       
@<TRIPOS>BOND
   1    1    2 ar
   2    1    6 ar
   3    1    7 1
   4    2    3 ar
   5    2   25 1
   6    3    4 ar
   7    3   26 1
   8    4    5 ar
   9    4   27 1
  10    5    6 ar
  11    5    9 1
  12    7    8 3
  13    9   10 1
  14    9   14 1
  15   10   11 1
  16   10   28 1
  17   10   29 1
  18   11   12 1
  19   11   30 1
  20   11   31 1
  21   12   13 1
  22   12   15 2
  23   13   14 1
  24   13   32 1
  25   13   33 1
  26   14   34 1
  27   14   35 1
  28   15   16 1
  29   15   36 1
  30   16   17 3
  31   17   18 1
  32   18   19 ar
  33   18   23 ar
  34   19   20 ar
  35   19   37 1
  36   20   21 ar
  37   20   38 1
  38   21   22 ar
  39   21   39 1
  40   22   23 ar
  41   22   24 1
  42   24   40 1
  43   24   41 1
  44   24   42 1

#	End of record

