#	Name: ASD04230104
#	Creating user name:	WinNT
#	Creation time:	15. 06. 2019 20:48

#	Modifying user name:	WinNT
#	Modification time:	15. 06. 2019 20:48

#	Program:	/corina/corina34_cracker 3.40 0067  02.08.2006

@<TRIPOS>MOLECULE
ASD04230104
  49   52    0    0    0
SMALL
NO_CHARGES


@<TRIPOS>ATOM
   1 C1             1.5408     4.6984     1.7350 C.ar    
   2 C2             2.5488     5.3922     2.3889 C.ar    
   3 C3             3.8047     4.8653     2.4864 C.ar    
   4 C4             4.0859     3.6167     1.9133 C.ar    
   5 C5             3.0597     2.8944     1.2779 C.ar    
   6 C6             1.7872     3.4541     1.1825 C.ar    
   7 C7             5.3962     3.0747     1.9738 C.2     
   8 C8             5.6651     1.9384     1.2225 C.2     
   9 C9             4.5697     1.4026     0.3939 C.2     
  10 O10            3.3003     1.6568     0.7827 O.3     
  11 C11            6.9895     1.2955     1.2518 C.2     
  12 N12            7.2200     0.1933     0.5113 N.am    
  13 O13            7.8754     1.7592     1.9443 O.2     
  14 C14            8.5068    -0.3513     0.4497 C.ar    
  15 C15            8.6754    -1.7277     0.3611 C.ar    
  16 C16            9.9455    -2.2696     0.3001 C.ar    
  17 C17           11.0535    -1.4469     0.3273 C.ar    
  18 C18           10.8940    -0.0646     0.4167 C.ar    
  19 C19            9.6148     0.4827     0.4715 C.ar    
  20 C20           12.0834     0.8208     0.4466 C.ar    
  21 O21            4.8010     0.7525    -0.6084 O.2     
  22 O22            0.7908     2.7793     0.5494 O.3     
  23 C23           12.1630     1.9147    -0.4114 C.ar    
  24 C24           13.2723     2.7359    -0.3799 C.ar    
  25 C25           14.3070     2.4770     0.5015 C.ar    
  26 C26           14.2395     1.3946     1.3579 C.ar    
  27 C27           13.1287     0.5642     1.3414 C.ar    
  28 N28           13.0586    -0.5309     2.2065 N.am    
  29 C29           14.1770    -1.2142     2.5206 C.2     
  30 O30           15.2555    -0.8288     2.1213 O.2     
  31 C31           14.0876    -2.4572     3.3680 C.3     
  32 H32            0.5542     5.1314     1.6606 H       
  33 H33            2.3383     6.3578     2.8244 H       
  34 H34            4.5806     5.4097     3.0040 H       
  35 H35            6.1603     3.5320     2.5849 H       
  36 H36            6.4935    -0.2223     0.0210 H       
  37 H37            7.8118    -2.3758     0.3401 H       
  38 H38           10.0713    -3.3401     0.2312 H       
  39 H39           12.0443    -1.8740     0.2799 H       
  40 H40            9.4859     1.5528     0.5403 H       
  41 H41            0.2769     2.2011     1.1297 H       
  42 H42           11.3578     2.1202    -1.1012 H       
  43 H43           13.3328     3.5838    -1.0461 H       
  44 H44           15.1716     3.1239     0.5201 H       
  45 H45           15.0505     1.1975     2.0433 H       
  46 H46           12.2050    -0.7993     2.5810 H       
  47 H47           13.9559    -3.3270     2.7243 H       
  48 H48           15.0044    -2.5691     3.9468 H       
  49 H49           13.2379    -2.3747     4.0456 H       
@<TRIPOS>BOND
   1    1    2 ar
   2    1    6 ar
   3    1   32 1
   4    2    3 ar
   5    2   33 1
   6    3    4 ar
   7    3   34 1
   8    4    5 ar
   9    4    7 1
  10    5    6 ar
  11    5   10 1
  12    6   22 1
  13    7    8 2
  14    7   35 1
  15    8    9 1
  16    8   11 1
  17    9   10 1
  18    9   21 2
  19   11   12 am
  20   11   13 2
  21   12   14 1
  22   12   36 1
  23   14   15 ar
  24   14   19 ar
  25   15   16 ar
  26   15   37 1
  27   16   17 ar
  28   16   38 1
  29   17   18 ar
  30   17   39 1
  31   18   19 ar
  32   18   20 1
  33   19   40 1
  34   20   23 ar
  35   20   27 ar
  36   22   41 1
  37   23   24 ar
  38   23   42 1
  39   24   25 ar
  40   24   43 1
  41   25   26 ar
  42   25   44 1
  43   26   27 ar
  44   26   45 1
  45   27   28 1
  46   28   29 am
  47   28   46 1
  48   29   30 2
  49   29   31 1
  50   31   47 1
  51   31   48 1
  52   31   49 1

#	End of record

