#	Name: ASD00311140
#	Creating user name:	WinNT
#	Creation time:	15. 06. 2019 18:34

#	Modifying user name:	WinNT
#	Modification time:	15. 06. 2019 18:34

#	Program:	/corina/corina34_cracker 3.40 0067  02.08.2006

@<TRIPOS>MOLECULE
ASD00311140
  40   43    0    0    0
SMALL
NO_CHARGES


@<TRIPOS>ATOM
   1 C1            -0.0167     1.3777     0.0096 C.2     
   2 C2             0.0021    -0.0041     0.0020 C.2     
   3 C3             1.2586    -0.6766    -0.0131 C.2     
   4 C4             2.4315     0.0673    -0.0199 C.2     
   5 C5             2.3576     1.4751    -0.0117 C.2     
   6 N6             1.1650     2.0903     0.0022 N.am    
   7 C7            -1.3434    -0.5753     0.0118 C.2     
   8 C8            -2.3230     0.3265     0.0260 C.2     
   9 S9            -1.6792     1.9564     0.0358 S.3     
  10 O10            3.3825     2.1371    -0.0171 O.2     
  11 C11            3.7476    -0.6122    -0.0352 C.ar    
  12 C12            4.5937    -0.4748    -1.1354 C.ar    
  13 C13            5.8185    -1.1103    -1.1437 C.ar    
  14 C14            6.2076    -1.8827    -0.0639 C.ar    
  15 C15            5.3726    -2.0227     1.0303 C.ar    
  16 C16            4.1481    -1.3872     1.0530 C.ar    
  17 O17            1.3084    -2.0292    -0.0204 O.3     
  18 C18           -1.5961    -2.0357     0.0064 C.ar    
  19 C19           -2.2074    -2.6432     1.1030 C.ar    
  20 C20           -2.4411    -4.0040     1.0942 C.ar    
  21 C21           -2.0674    -4.7672    -0.0062 C.ar    
  22 C22           -1.4594    -4.1647    -1.0975 C.ar    
  23 C23           -1.2284    -2.8041    -1.0972 C.ar    
  24 O24           -2.2982    -6.1073    -0.0124 O.3     
  25 C25           -1.8890    -6.8307    -1.1748 C.3     
  26 F26           -3.0327    -4.5943     2.1556 F       
  27 Cl27          -4.0151    -0.0614     0.0392 Cl      
  28 H28            1.1329     3.0598     0.0073 H       
  29 H29            4.2908     0.1273    -1.9792 H       
  30 H30            6.4746    -1.0047    -1.9950 H       
  31 H31            7.1668    -2.3787    -0.0753 H       
  32 H32            5.6817    -2.6273     1.8701 H       
  33 H33            3.4992    -1.4933     1.9098 H       
  34 H34            2.2056    -2.3896    -0.0306 H       
  35 H35           -2.4973    -2.0502     1.9578 H       
  36 H36           -1.1704    -4.7604    -1.9507 H       
  37 H37           -0.7592    -2.3355    -1.9497 H       
  38 H38           -2.4106    -6.4396    -2.0484 H       
  39 H39           -0.8137    -6.7180    -1.3131 H       
  40 H40           -2.1306    -7.8862    -1.0497 H       
@<TRIPOS>BOND
   1    1    2 2
   2    1    6 1
   3    1    9 1
   4    2    3 1
   5    2    7 1
   6    3    4 2
   7    3   17 1
   8    4    5 1
   9    4   11 1
  10    5    6 am
  11    5   10 2
  12    6   28 1
  13    7    8 2
  14    7   18 1
  15    8    9 1
  16    8   27 1
  17   11   12 ar
  18   11   16 ar
  19   12   13 ar
  20   12   29 1
  21   13   14 ar
  22   13   30 1
  23   14   15 ar
  24   14   31 1
  25   15   16 ar
  26   15   32 1
  27   16   33 1
  28   17   34 1
  29   18   19 ar
  30   18   23 ar
  31   19   20 ar
  32   19   35 1
  33   20   21 ar
  34   20   26 1
  35   21   22 ar
  36   21   24 1
  37   22   23 ar
  38   22   36 1
  39   23   37 1
  40   24   25 1
  41   25   38 1
  42   25   39 1
  43   25   40 1

#	End of record

