#	Name: ASD02398016
#	Creating user name:	WinNT
#	Creation time:	15. 06. 2019 20:20

#	Modifying user name:	WinNT
#	Modification time:	15. 06. 2019 20:20

#	Program:	/corina/corina34_cracker 3.40 0067  02.08.2006

@<TRIPOS>MOLECULE
ASD02398016
  60   63    0    0    0
SMALL
NO_CHARGES


@<TRIPOS>ATOM
   1 C1            -0.0354     1.3043    -0.0250 C.ar    
   2 C2            -0.0195    -0.0888     0.0206 C.ar    
   3 C3             1.1969    -0.7687     0.0411 C.ar    
   4 C4             2.3810    -0.0618     0.0162 C.ar    
   5 C5             2.3619     1.3254    -0.0292 C.ar    
   6 C6             1.1515     2.0056    -0.0498 C.ar    
   7 C7             3.6967    -0.7962     0.0388 C.3     
   8 C8             4.1974    -0.8862     1.4573 C.2     
   9 O9             3.5521    -0.4034     2.3576 O.2     
  10 O10            5.3604    -1.5026     1.7207 O.3     
  11 C11           -1.2949    -0.8462     0.0477 C.ar    
  12 C12           -2.2373    -0.5937     1.0430 C.ar    
  13 C13           -1.5574    -1.8087    -0.9250 C.ar    
  14 C14           -2.7459    -2.5101    -0.8952 C.ar    
  15 C15           -3.6753    -2.2590     0.0978 C.ar    
  16 C16           -3.4221    -1.3008     1.0631 C.ar    
  17 C17           -1.9627     0.4494     2.0954 C.3     
  18 N18           -3.1462     0.6106     2.9437 N.am    
  19 C19           -3.4576    -0.1526     4.0002 C.2     
  20 O20           -4.5946     0.2034     4.6084 O.3     
  21 C21           -5.1749     1.3497     3.9213 C.3     
  22 C22           -4.1833     1.6406     2.7783 C.3     
  23 O23           -2.7702    -1.0832     4.3715 O.2     
  24 C24           -4.8699     1.4889     1.4195 C.3     
  25 C25           -6.5347     1.0034     3.3717 C.ar    
  26 C26           -7.5249     1.9666     3.3195 C.ar    
  27 C27           -6.7901    -0.2759     2.9144 C.ar    
  28 C28           -8.0374    -0.5935     2.4103 C.ar    
  29 C29           -9.0295     0.3680     2.3638 C.ar    
  30 C30           -8.7722     1.6490     2.8154 C.ar    
  31 O31            3.5299     2.0191    -0.0537 O.3     
  32 C32            3.4372     3.4443    -0.1002 C.3     
  33 C33           -4.9710    -3.0280     0.1251 C.3     
  34 F34           -5.0013    -3.9288    -0.9449 F       
  35 F35           -5.0703    -3.7318     1.3301 F       
  36 F36           -6.0443    -2.1373     0.0155 F       
  37 H37           -0.9766     1.8337    -0.0455 H       
  38 H38            1.2123    -1.8480     0.0767 H       
  39 H39            1.1398     3.0849    -0.0851 H       
  40 H40            3.5593    -1.8004    -0.3623 H       
  41 H41            4.4236    -0.2582    -0.5697 H       
  42 H42            5.6403    -1.5351     2.6458 H       
  43 H43           -0.8325    -2.0053    -1.7011 H       
  44 H44           -2.9506    -3.2560    -1.6488 H       
  45 H45           -4.1513    -1.1088     1.8363 H       
  46 H46           -1.1174     0.1345     2.7072 H       
  47 H47           -1.7289     1.3988     1.6137 H       
  48 H48           -5.2399     2.2053     4.5935 H       
  49 H49           -3.7587     2.6389     2.8846 H       
  50 H50           -5.6556     2.2383     1.3237 H       
  51 H51           -4.1370     1.6273     0.6246 H       
  52 H52           -5.3062     0.4930     1.3421 H       
  53 H53           -7.3241     2.9672     3.6730 H       
  54 H54           -6.0150    -1.0271     2.9508 H       
  55 H55           -8.2367    -1.5928     2.0524 H       
  56 H56          -10.0038     0.1200     1.9695 H       
  57 H57           -9.5473     2.4002     2.7790 H       
  58 H58            4.4391     3.8733    -0.1157 H       
  59 H59            2.8996     3.7443    -0.9997 H       
  60 H60            2.9022     3.8025     0.7793 H       
@<TRIPOS>BOND
   1    1    2 ar
   2    1    6 ar
   3    1   37 1
   4    2    3 ar
   5    2   11 1
   6    3    4 ar
   7    3   38 1
   8    4    5 ar
   9    4    7 1
  10    5    6 ar
  11    5   31 1
  12    6   39 1
  13    7    8 1
  14    7   40 1
  15    7   41 1
  16    8    9 2
  17    8   10 1
  18   10   42 1
  19   11   12 ar
  20   11   13 ar
  21   12   17 1
  22   12   16 ar
  23   13   14 ar
  24   13   43 1
  25   14   15 ar
  26   14   44 1
  27   15   16 ar
  28   15   33 1
  29   16   45 1
  30   17   18 1
  31   17   46 1
  32   17   47 1
  33   18   19 am
  34   18   22 1
  35   19   20 1
  36   19   23 2
  37   20   21 1
  38   21   22 1
  39   21   25 1
  40   21   48 1
  41   22   24 1
  42   22   49 1
  43   24   50 1
  44   24   51 1
  45   24   52 1
  46   25   26 ar
  47   25   27 ar
  48   26   30 ar
  49   26   53 1
  50   27   28 ar
  51   27   54 1
  52   28   29 ar
  53   28   55 1
  54   29   30 ar
  55   29   56 1
  56   30   57 1
  57   31   32 1
  58   32   58 1
  59   32   59 1
  60   32   60 1
  61   33   34 1
  62   33   35 1
  63   33   36 1

#	End of record

