#	Name: ASD08178195
#	Creating user name:	WinNT
#	Creation time:	15. 06. 2019 21:18

#	Modifying user name:	WinNT
#	Modification time:	15. 06. 2019 21:18

#	Program:	/corina/corina34_cracker 3.40 0067  02.08.2006

@<TRIPOS>MOLECULE
ASD08178195
  69   72    0    0    0
SMALL
NO_CHARGES


@<TRIPOS>ATOM
   1 C1            -0.0155     1.2947     0.0092 C.2     
   2 N2             0.0021    -0.0041     0.0020 N.2     
   3 N3            -1.1080    -0.6053     0.0094 N.2     
   4 C4            -2.1692     0.1372     0.0235 C.2     
   5 S5            -1.6454     1.8216     0.0350 S.3     
   6 C6            -3.5951    -0.3504     0.0340 C.3     
   7 C7            -4.0644    -0.5229     1.4800 C.3     
   8 C8            -5.5121    -1.0179     1.4907 C.3     
   9 C9            -5.9814    -1.1905     2.9367 C.3     
  10 C10           -7.4073    -1.6780     2.9473 C.2     
  11 N11           -7.7918    -2.9148     2.9447 N.2     
  12 N12           -9.0376    -3.1191     2.9550 N.2     
  13 C13           -9.8187    -2.0813     2.9671 C.2     
  14 S14           -8.8524    -0.6668     2.9729 S.3     
  15 N15          -11.2091    -2.1133     2.9791 N.am    
  16 C16          -11.8559    -3.2957     2.9793 C.2     
  17 C17          -13.3625    -3.3304     2.9924 C.3     
  18 O18          -11.2256    -4.3318     2.9690 O.2     
  19 C19          -13.8320    -4.7624     2.9898 C.ar    
  20 C20          -14.0369    -5.4248     4.1859 C.ar    
  21 C21          -14.0632    -5.4117     1.7918 C.ar    
  22 C22          -14.4940    -6.7255     1.7895 C.ar    
  23 C23          -14.6930    -7.3896     2.9852 C.ar    
  24 C24          -14.4675    -6.7381     4.1836 C.ar    
  25 C25          -14.6845    -7.4623     5.4873 C.3     
  26 N26          -13.4371    -8.1228     5.8941 N.3     
  27 C27          -13.5372    -8.6375     7.2664 C.3     
  28 C28          -13.0780    -9.1938     4.9550 C.3     
  29 N29            1.1034     2.1206     0.0029 N.am    
  30 C30            2.3386     1.5818    -0.0123 C.2     
  31 C31            3.5511     2.4767    -0.0190 C.3     
  32 O32            2.4745     0.3766    -0.0205 O.2     
  33 C33            4.7989     1.6319    -0.0361 C.ar    
  34 C34            5.3595     1.2513    -1.2410 C.ar    
  35 C35            6.5041     0.4764    -1.2567 C.ar    
  36 C36            7.0884     0.0825    -0.0674 C.ar    
  37 C37            6.5283     0.4638     1.1375 C.ar    
  38 C38            5.3862     1.2424     1.1531 C.ar    
  39 H39           -4.2315     0.3769    -0.4702 H       
  40 H40           -3.6557    -1.3073    -0.4843 H       
  41 H41           -3.4280    -1.2502     1.9842 H       
  42 H42           -4.0038     0.4340     1.9984 H       
  43 H43           -6.1485    -0.2906     0.9865 H       
  44 H44           -5.5727    -1.9748     0.9724 H       
  45 H45           -5.3450    -1.9177     3.4409 H       
  46 H46           -5.9207    -0.2335     3.4550 H       
  47 H47          -11.7132    -1.2847     2.9874 H       
  48 H48          -13.7297    -2.8292     3.8879 H       
  49 H49          -13.7453    -2.8210     2.1080 H       
  50 H50          -13.8602    -4.9161     5.1221 H       
  51 H51          -13.9077    -4.8928     0.8575 H       
  52 H52          -14.6754    -7.2326     0.8534 H       
  53 H53          -15.0299    -8.4157     2.9834 H       
  54 H54          -14.9842    -6.7479     6.2542 H       
  55 H55          -15.4674    -8.2102     5.3616 H       
  56 H56          -14.3507    -9.3606     7.3248 H       
  57 H57          -12.6003    -9.1215     7.5421 H       
  58 H58          -13.7348    -7.8122     7.9504 H       
  59 H59          -12.9419    -8.7730     3.9588 H       
  60 H60          -12.1509    -9.6661     5.2798 H       
  61 H61          -13.8749    -9.9371     4.9297 H       
  62 H62            0.9948     3.0845     0.0095 H       
  63 H63            3.5296     3.1110    -0.9053 H       
  64 H64            3.5470     3.1008     0.8746 H       
  65 H65            4.9030     1.5591    -2.1701 H       
  66 H66            6.9417     0.1785    -2.1980 H       
  67 H67            7.9822    -0.5236    -0.0796 H       
  68 H68            6.9846     0.1558     2.0666 H       
  69 H69            4.9486     1.5404     2.0945 H       
@<TRIPOS>BOND
   1    1    2 2
   2    1   29 1
   3    1    5 1
   4    2    3 1
   5    3    4 2
   6    4    5 1
   7    4    6 1
   8    6    7 1
   9    6   39 1
  10    6   40 1
  11    7    8 1
  12    7   41 1
  13    7   42 1
  14    8    9 1
  15    8   43 1
  16    8   44 1
  17    9   10 1
  18    9   45 1
  19    9   46 1
  20   10   11 2
  21   10   14 1
  22   11   12 1
  23   12   13 2
  24   13   14 1
  25   13   15 1
  26   15   16 am
  27   15   47 1
  28   16   17 1
  29   16   18 2
  30   17   19 1
  31   17   48 1
  32   17   49 1
  33   19   20 ar
  34   19   21 ar
  35   20   24 ar
  36   20   50 1
  37   21   22 ar
  38   21   51 1
  39   22   23 ar
  40   22   52 1
  41   23   24 ar
  42   23   53 1
  43   24   25 1
  44   25   26 1
  45   25   54 1
  46   25   55 1
  47   26   27 1
  48   26   28 1
  49   27   56 1
  50   27   57 1
  51   27   58 1
  52   28   59 1
  53   28   60 1
  54   28   61 1
  55   29   30 am
  56   29   62 1
  57   30   31 1
  58   30   32 2
  59   31   33 1
  60   31   63 1
  61   31   64 1
  62   33   34 ar
  63   33   38 ar
  64   34   35 ar
  65   34   65 1
  66   35   36 ar
  67   35   66 1
  68   36   37 ar
  69   36   67 1
  70   37   38 ar
  71   37   68 1
  72   38   69 1

#	End of record

