#	Name: ASD01903141
#	Creating user name:	WinNT
#	Creation time:	15. 06. 2019 19:54

#	Modifying user name:	WinNT
#	Modification time:	15. 06. 2019 19:54

#	Program:	/corina/corina34_cracker 3.40 0067  02.08.2006

@<TRIPOS>MOLECULE
ASD01903141
  43   45    0    0    0
SMALL
NO_CHARGES


@<TRIPOS>ATOM
   1 C1             1.2686    -1.6628     0.4122 C.ar    
   2 C2             0.3829    -1.0441    -0.4558 C.ar    
   3 C3             0.7827     0.0949    -1.1368 C.ar    
   4 N4             1.9880     0.5936    -0.9696 N.ar    
   5 C5             2.8663     0.0317    -0.1478 C.ar    
   6 C6             2.5324    -1.1151     0.5688 C.ar    
   7 C7             4.2126     0.6293     0.0083 C.2     
   8 N8             4.5416     1.7389    -0.6824 N.am    
   9 O9             5.0206     0.1191     0.7592 O.2     
  10 C10            5.7759     2.3584    -0.4634 C.ar    
  11 C11            6.8993     1.5917    -0.1816 C.ar    
  12 C12            8.1168     2.2067     0.0342 C.ar    
  13 C13            8.2183     3.5844    -0.0301 C.ar    
  14 C14            7.1018     4.3507    -0.3100 C.ar    
  15 C15            5.8825     3.7415    -0.5329 C.ar    
  16 S16            9.7736     4.3651     0.2459 S.o2    
  17 O17            9.4912     5.7211     0.5633 O.2     
  18 O18           10.5088     3.5030     1.1035 O.2     
  19 N19           10.5777     4.3813    -1.2017 N.am    
  20 C20           10.9058     3.1788    -1.8319 C.ar    
  21 C21           10.6668     3.0170    -3.1904 C.ar    
  22 C22           10.9929     1.8266    -3.8105 C.ar    
  23 C23           11.5564     0.7966    -3.0803 C.ar    
  24 C24           11.7959     0.9544    -1.7272 C.ar    
  25 C25           11.4775     2.1438    -1.1022 C.ar    
  26 C26           10.7339     1.6502    -5.2846 C.3     
  27 H27            0.9792    -2.5489     0.9577 H       
  28 H28           -0.6091    -1.4458    -0.6005 H       
  29 H29            0.0952     0.5794    -1.8143 H       
  30 H30            3.2480    -1.5713     1.2367 H       
  31 H31            3.9222     2.1077    -1.3314 H       
  32 H32            6.8206     0.5157    -0.1309 H       
  33 H33            8.9906     1.6112     0.2538 H       
  34 H34            7.1843     5.4264    -0.3592 H       
  35 H35            5.0108     4.3406    -0.7515 H       
  36 H36           10.8207     5.2260    -1.6121 H       
  37 H37           10.2260     3.8209    -3.7613 H       
  38 H38           11.8099    -0.1334    -3.5674 H       
  39 H39           12.2358     0.1477    -1.1597 H       
  40 H40           11.6650     2.2665    -0.0458 H       
  41 H41           11.6090     1.9731    -5.8485 H       
  42 H42           10.5334     0.5996    -5.4950 H       
  43 H43            9.8719     2.2501    -5.5764 H       
@<TRIPOS>BOND
   1    1    2 ar
   2    1    6 ar
   3    1   27 1
   4    2    3 ar
   5    2   28 1
   6    3    4 ar
   7    3   29 1
   8    4    5 ar
   9    5    6 ar
  10    5    7 1
  11    6   30 1
  12    7    8 am
  13    7    9 2
  14    8   10 1
  15    8   31 1
  16   10   11 ar
  17   10   15 ar
  18   11   12 ar
  19   11   32 1
  20   12   13 ar
  21   12   33 1
  22   13   14 ar
  23   13   16 1
  24   14   15 ar
  25   14   34 1
  26   15   35 1
  27   16   17 2
  28   16   18 2
  29   16   19 am
  30   19   20 1
  31   19   36 1
  32   20   21 ar
  33   20   25 ar
  34   21   22 ar
  35   21   37 1
  36   22   23 ar
  37   22   26 1
  38   23   24 ar
  39   23   38 1
  40   24   25 ar
  41   24   39 1
  42   25   40 1
  43   26   41 1
  44   26   42 1
  45   26   43 1

#	End of record

