#	Name: ASD01140598
#	Creating user name:	WinNT
#	Creation time:	15. 06. 2019 19:01

#	Modifying user name:	WinNT
#	Modification time:	15. 06. 2019 19:01

#	Program:	/corina/corina34_cracker 3.40 0067  02.08.2006

@<TRIPOS>MOLECULE
ASD01140598
  27   27    0    0    0
SMALL
NO_CHARGES


@<TRIPOS>ATOM
   1 O1             2.8178     2.2114     1.9254 O.2     
   2 C2            -0.0187     1.5250     0.0104 C.3     
   3 C3             0.0021    -0.0041     0.0020 C.3     
   4 C4             1.4156     2.0635    -0.0004 C.3     
   5 C5             0.6043    -0.5221     1.3121 C.3     
   6 C6             1.9965     0.0584     1.4602 C.2     
   7 C7             2.1448     1.5043     1.2049 C.2     
   8 C8            -0.7611     2.0304    -1.2282 C.3     
   9 C9             3.0380    -0.7013     1.8053 C.2     
  10 C10            2.8452    -2.1744     2.0581 C.3     
  11 C11            4.4069    -0.0862     1.9422 C.3     
  12 H12           -0.5306     1.8755     0.9066 H       
  13 H13           -1.0158    -0.3797    -0.1023 H       
  14 H14            0.6040    -0.3537    -0.8367 H       
  15 H15            1.9196     1.7473    -0.9137 H       
  16 H16            1.3995     3.1520     0.0527 H       
  17 H17           -0.0160    -0.2071     2.1512 H       
  18 H18            0.6612    -1.6103     1.2850 H       
  19 H19           -1.7834     1.6526    -1.2184 H       
  20 H20           -0.7764     3.1203    -1.2231 H       
  21 H21           -0.2522     1.6784    -2.1256 H       
  22 H22            2.4594    -2.6503     1.1565 H       
  23 H23            3.8007    -2.6251     2.3264 H       
  24 H24            2.1361    -2.3133     2.8741 H       
  25 H25            4.5503     0.2568     2.9669 H       
  26 H26            5.1655    -0.8299     1.6985 H       
  27 H27            4.4950     0.7596     1.2604 H       
@<TRIPOS>BOND
   1    1    7 2
   2    2    3 1
   3    2    4 1
   4    2    8 1
   5    2   12 1
   6    3    5 1
   7    3   13 1
   8    3   14 1
   9    4    7 1
  10    4   15 1
  11    4   16 1
  12    5    6 1
  13    5   17 1
  14    5   18 1
  15    6    7 1
  16    6    9 2
  17    8   19 1
  18    8   20 1
  19    8   21 1
  20    9   10 1
  21    9   11 1
  22   10   22 1
  23   10   23 1
  24   10   24 1
  25   11   25 1
  26   11   26 1
  27   11   27 1

#	End of record

