#	Name: ASD01884196
#	Creating user name:	WinNT
#	Creation time:	15. 06. 2019 19:47

#	Modifying user name:	WinNT
#	Modification time:	15. 06. 2019 19:47

#	Program:	/corina/corina34_cracker 3.40 0067  02.08.2006

@<TRIPOS>MOLECULE
ASD01884196
  55   58    0    0    0
SMALL
NO_CHARGES


@<TRIPOS>ATOM
   1 S1            -0.0219     1.7672     0.0118 S.3     
   2 C2             0.0021    -0.0041     0.0020 C.2     
   3 N3             1.2907    -0.3577    -0.0122 N.am    
   4 C4             2.2519     0.6365    -0.0160 C.ar    
   5 C5             1.7391     1.9357    -0.0042 C.ar    
   6 C6             2.5666     3.0413    -0.0061 C.ar    
   7 C7             3.9491     2.8718    -0.0202 C.ar    
   8 C8             4.4761     1.5802    -0.0322 C.ar    
   9 C9             3.6480     0.4853    -0.0309 C.ar    
  10 O10           -0.9607    -0.7487     0.0076 O.2     
  11 C11            4.8501     4.0505    -0.0230 C.ar    
  12 C12            6.2326     3.8740    -0.0371 C.ar    
  13 C13            7.0659     4.9739    -0.0396 C.ar    
  14 C14            6.5315     6.2499    -0.0280 C.ar    
  15 C15            5.1604     6.4309    -0.0140 C.ar    
  16 C16            4.3173     5.3379    -0.0172 C.ar    
  17 C17            1.6774    -1.7707    -0.0230 C.3     
  18 C18            1.7987    -2.2552    -1.4692 C.3     
  19 C19            2.3095    -3.6794    -1.6966 C.3     
  20 C20            0.8340    -3.3493    -1.9309 C.3     
  21 F21            3.1072    -3.9074    -2.8230 F       
  22 F22            2.6298    -4.4390    -0.5662 F       
  23 C23            8.5609     4.7848    -0.0544 C.3     
  24 N24            9.0325     4.7301    -1.4403 N.am    
  25 C25           10.3448     4.5650    -1.6996 C.2     
  26 O26           10.7782     4.5148    -2.9733 O.3     
  27 O27           11.1367     4.4615    -0.7838 O.2     
  28 C28           12.2045     4.3350    -3.1776 C.3     
  29 C29           12.6490     3.0172    -2.5398 C.3     
  30 C30           12.5047     4.3025    -4.6776 C.3     
  31 C31           12.9627     5.4959    -2.5309 C.3     
  32 H32            2.1429     4.0347     0.0029 H       
  33 H33            5.5469     1.4402    -0.0435 H       
  34 H34            4.0761    -0.5062    -0.0403 H       
  35 H35            6.6508     2.8784    -0.0458 H       
  36 H36            7.1874     7.1080    -0.0297 H       
  37 H37            4.7486     7.4293    -0.0047 H       
  38 H38            3.2468     5.4803    -0.0107 H       
  39 H39            2.6364    -1.8888     0.4814 H       
  40 H40            0.9197    -2.3588     0.4949 H       
  41 H41            2.0846    -1.4958    -2.1970 H       
  42 H42            0.1129    -3.7239    -1.2044 H       
  43 H43            0.4849    -3.3098    -2.9627 H       
  44 H44            9.0379     5.6197     0.4591 H       
  45 H45            8.8144     3.8538     0.4527 H       
  46 H46            8.4004     4.8128    -2.1714 H       
  47 H47           12.1088     2.1902    -3.0006 H       
  48 H48           13.7197     2.8823    -2.6933 H       
  49 H49           12.4351     3.0404    -1.4713 H       
  50 H50           12.1880     5.2413    -5.1319 H       
  51 H51           13.5754     4.1675    -4.8310 H       
  52 H52           11.9645     3.4754    -5.1383 H       
  53 H53           12.7488     5.5191    -1.4623 H       
  54 H54           14.0334     5.3610    -2.6843 H       
  55 H55           12.6460     6.4347    -2.9852 H       
@<TRIPOS>BOND
   1    1    2 1
   2    1    5 1
   3    2    3 am
   4    2   10 2
   5    3    4 1
   6    3   17 1
   7    4    5 ar
   8    4    9 ar
   9    5    6 ar
  10    6    7 ar
  11    6   32 1
  12    7    8 ar
  13    7   11 1
  14    8    9 ar
  15    8   33 1
  16    9   34 1
  17   11   12 ar
  18   11   16 ar
  19   12   13 ar
  20   12   35 1
  21   13   14 ar
  22   13   23 1
  23   14   15 ar
  24   14   36 1
  25   15   16 ar
  26   15   37 1
  27   16   38 1
  28   17   18 1
  29   17   39 1
  30   17   40 1
  31   18   19 1
  32   18   20 1
  33   18   41 1
  34   19   20 1
  35   19   21 1
  36   19   22 1
  37   20   42 1
  38   20   43 1
  39   23   24 1
  40   23   44 1
  41   23   45 1
  42   24   25 am
  43   24   46 1
  44   25   26 1
  45   25   27 2
  46   26   28 1
  47   28   29 1
  48   28   30 1
  49   28   31 1
  50   29   47 1
  51   29   48 1
  52   29   49 1
  53   30   50 1
  54   30   51 1
  55   30   52 1
  56   31   53 1
  57   31   54 1
  58   31   55 1

#	End of record

