#	Name: ASD01918123
#	Creating user name:	WinNT
#	Creation time:	15. 06. 2019 20:10

#	Modifying user name:	WinNT
#	Modification time:	15. 06. 2019 20:10

#	Program:	/corina/corina34_cracker 3.40 0067  02.08.2006

@<TRIPOS>MOLECULE
ASD01918123
  36   38    0    0    0
SMALL
NO_CHARGES


@<TRIPOS>ATOM
   1 N1            -0.0169     1.3943     0.0097 N.am    
   2 C2             0.0021    -0.0041     0.0020 C.2     
   3 C3             2.4503    -0.0769    -0.6053 C.3     
   4 C4             2.1994     1.3766    -1.0264 C.3     
   5 C5             1.2962     2.0676     0.0008 C.3     
   6 O6            -0.9768    -0.8812     0.2408 O.3     
   7 C7            -0.4541    -2.1153     0.1144 C.2     
   8 N8             0.8101    -2.0115    -0.1953 N.2     
   9 C9             1.1255    -0.7153    -0.2746 C.2     
  10 C10           -1.2063    -3.4078     0.3011 C.3     
  11 O11           -1.1234    -3.8140     1.6686 O.3     
  12 C12           -1.1717     2.0892     0.0190 C.2     
  13 O13           -1.1497     3.3020     0.0255 O.2     
  14 C14           -2.4902     1.3594     0.0214 C.3     
  15 C15           -1.7534    -4.9691     2.0084 C.ar    
  16 C16           -1.7137    -5.4227     3.3189 C.ar    
  17 C17           -2.3549    -6.5973     3.6617 C.ar    
  18 C18           -3.0360    -7.3207     2.7001 C.ar    
  19 C19           -3.0767    -6.8710     1.3933 C.ar    
  20 C20           -2.4422    -5.6938     1.0466 C.ar    
  21 H21            2.9238    -0.6188    -1.4240 H       
  22 H22            3.0958    -0.0976     0.2728 H       
  23 H23            3.1505     1.9056    -1.0865 H       
  24 H24            1.7151     1.3924    -2.0028 H       
  25 H25            1.1677     3.1151    -0.2720 H       
  26 H26            1.7487     1.9987     0.9900 H       
  27 H27           -2.2515    -3.2626     0.0279 H       
  28 H28           -0.7684    -4.1779    -0.3339 H       
  29 H29           -2.8032     1.1779     1.0496 H       
  30 H30           -3.2415     1.9650    -0.4855 H       
  31 H31           -2.3796     0.4076    -0.4981 H       
  32 H32           -1.1816    -4.8583     4.0703 H       
  33 H33           -2.3240    -6.9511     4.6817 H       
  34 H34           -3.5367    -8.2387     2.9702 H       
  35 H35           -3.6087    -7.4381     0.6438 H       
  36 H36           -2.4744    -5.3429     0.0257 H       
@<TRIPOS>BOND
   1    1    2 1
   2    1    5 1
   3    1   12 am
   4    2    6 1
   5    2    9 2
   6    3    4 1
   7    3    9 1
   8    3   21 1
   9    3   22 1
  10    4    5 1
  11    4   23 1
  12    4   24 1
  13    5   25 1
  14    5   26 1
  15    6    7 1
  16    7    8 2
  17    7   10 1
  18    8    9 1
  19   10   11 1
  20   10   27 1
  21   10   28 1
  22   11   15 1
  23   12   13 2
  24   12   14 1
  25   14   29 1
  26   14   30 1
  27   14   31 1
  28   15   16 ar
  29   15   20 ar
  30   16   17 ar
  31   16   32 1
  32   17   18 ar
  33   17   33 1
  34   18   19 ar
  35   18   34 1
  36   19   20 ar
  37   19   35 1
  38   20   36 1

#	End of record

