#	Name: ASD03332087
#	Creating user name:	WinNT
#	Creation time:	15. 06. 2019 20:40

#	Modifying user name:	WinNT
#	Modification time:	15. 06. 2019 20:40

#	Program:	/corina/corina34_cracker 3.40 0067  02.08.2006

@<TRIPOS>MOLECULE
ASD03332087
  64   67    0    0    0
SMALL
NO_CHARGES


@<TRIPOS>ATOM
   1 C1            -0.0028     1.3578    -0.1263 C.2     
   2 N2             0.0179     0.0074    -0.2178 N.pl3   
   3 C3             1.3079    -0.3976    -0.0353 C.2     
   4 N4             2.0522     0.6615     0.1802 N.2     
   5 C5             1.2716     1.7630     0.1336 C.2     
   6 C6             1.7186     3.1536     0.3289 C.2     
   7 O7             0.9163     4.0652     0.2621 O.2     
   8 N8             3.0163     3.4151     0.5815 N.am    
   9 C9             3.4607     4.7976     0.7756 C.3     
  10 C10            3.7483     5.4366    -0.5845 C.3     
  11 C11            4.8450     4.6439    -1.2987 C.3     
  12 C12            4.7145     4.8095     1.6115 C.2     
  13 C13            2.4754     5.4244    -1.4332 C.3     
  14 C14            4.2124     6.8803    -0.3818 C.3     
  15 N15            4.9721     5.6050     2.6217 N.2     
  16 C16           -1.1493    -0.8472    -0.4528 C.3     
  17 C17           -1.9690    -0.2709    -1.6114 C.3     
  18 C18           -2.9678     0.7512    -1.0778 C.3     
  19 N19           -2.4178     1.4725     0.0719 N.3     
  20 C20           -1.2163     2.2340    -0.3003 C.3     
  21 C21            1.7875    -1.7968    -0.0736 C.ar    
  22 C22            3.0774    -2.0831    -0.5214 C.ar    
  23 C23            3.5186    -3.3900    -0.5548 C.ar    
  24 C24            2.6847    -4.4154    -0.1459 C.ar    
  25 C25            1.4044    -4.1380     0.2987 C.ar    
  26 C26            0.9536    -2.8347     0.3432 C.ar    
  27 C27            6.1961     5.2549     3.0552 C.2     
  28 N28            6.6128     4.2825     2.3006 N.2     
  29 O29            5.7740     4.0076     1.4686 O.3     
  30 C30            6.9468     5.8765     4.2046 C.3     
  31 C31           -3.4299     2.3485     0.6770 C.3     
  32 C32           -2.9052     2.8902     2.0082 C.3     
  33 H33            3.6562     2.6880     0.6347 H       
  34 H34            2.6794     5.3623     1.2843 H       
  35 H35            4.5144     3.6153    -1.4431 H       
  36 H36            5.0499     5.0991    -2.2676 H       
  37 H37            5.7519     4.6526    -0.6940 H       
  38 H38            1.6941     5.9891    -0.9244 H       
  39 H39            2.6803     5.8796    -2.4022 H       
  40 H40            2.1448     4.3958    -1.5776 H       
  41 H41            5.1193     6.8890     0.2228 H       
  42 H42            4.4173     7.3355    -1.3507 H       
  43 H43            3.4311     7.4450     0.1270 H       
  44 H44           -0.8182    -1.8543    -0.7064 H       
  45 H45           -1.7636    -0.8804     0.4469 H       
  46 H46           -1.3001     0.2132    -2.3230 H       
  47 H47           -2.5068    -1.0766    -2.1110 H       
  48 H48           -3.2063     1.4642    -1.8670 H       
  49 H49           -3.8793     0.2362    -0.7745 H       
  50 H50           -1.1276     3.1109     0.3410 H       
  51 H51           -1.2923     2.5487    -1.3411 H       
  52 H52            3.7291    -1.2836    -0.8415 H       
  53 H53            4.5170    -3.6130    -0.9011 H       
  54 H54            3.0346    -5.4367    -0.1742 H       
  55 H55            0.7580    -4.9429     0.6163 H       
  56 H56           -0.0460    -2.6194     0.6908 H       
  57 H57            6.7052     5.3461     5.1257 H       
  58 H58            8.0185     5.8096     4.0173 H       
  59 H59            6.6597     6.9235     4.3023 H       
  60 H60           -3.6401     3.1797     0.0040 H       
  61 H61           -4.3443     1.7813     0.8507 H       
  62 H62           -2.6949     2.0590     2.6813 H       
  63 H63           -1.9908     3.4574     1.8346 H       
  64 H64           -3.6562     3.5402     2.4573 H       
@<TRIPOS>BOND
   1    1    2 1
   2    1    5 2
   3    1   20 1
   4    2    3 1
   5    2   16 1
   6    3    4 2
   7    3   21 1
   8    4    5 1
   9    5    6 1
  10    6    7 2
  11    6    8 am
  12    8    9 1
  13    8   33 1
  14    9   10 1
  15    9   12 1
  16    9   34 1
  17   10   11 1
  18   10   13 1
  19   10   14 1
  20   11   35 1
  21   11   36 1
  22   11   37 1
  23   12   15 2
  24   12   29 1
  25   13   38 1
  26   13   39 1
  27   13   40 1
  28   14   41 1
  29   14   42 1
  30   14   43 1
  31   15   27 1
  32   16   17 1
  33   16   44 1
  34   16   45 1
  35   17   18 1
  36   17   46 1
  37   17   47 1
  38   18   19 1
  39   18   48 1
  40   18   49 1
  41   19   20 1
  42   19   31 1
  43   20   50 1
  44   20   51 1
  45   21   22 ar
  46   21   26 ar
  47   22   23 ar
  48   22   52 1
  49   23   24 ar
  50   23   53 1
  51   24   25 ar
  52   24   54 1
  53   25   26 ar
  54   25   55 1
  55   26   56 1
  56   27   28 2
  57   27   30 1
  58   28   29 1
  59   30   57 1
  60   30   58 1
  61   30   59 1
  62   31   32 1
  63   31   60 1
  64   31   61 1
  65   32   62 1
  66   32   63 1
  67   32   64 1

#	End of record

