#	Name: ASD01209029
#	Creating user name:	WinNT
#	Creation time:	15. 06. 2019 19:10

#	Modifying user name:	WinNT
#	Modification time:	15. 06. 2019 19:10

#	Program:	/corina/corina34_cracker 3.40 0067  02.08.2006

@<TRIPOS>MOLECULE
ASD01209029
  58   62    0    0    0
SMALL
NO_CHARGES


@<TRIPOS>ATOM
   1 S1            -0.4180     0.7818     0.5635 S.o2    
   2 C2            -3.5663    -0.8550    -5.4345 C.3     
   3 C3            -4.9151    -0.3702    -4.8992 C.3     
   4 C4            -4.7266     0.9645    -4.1754 C.3     
   5 C5            -6.0709     1.5065    -3.7629 C.2     
   6 O6            -6.3491     1.6074    -2.5866 O.2     
   7 N7            -3.8958     0.7620    -2.9859 N.pl3   
   8 C8            -2.6926     1.3682    -2.7472 C.ar    
   9 C9            -2.2434     0.8920    -1.4994 C.ar    
  10 C10           -3.2623    -0.0347    -1.0195 C.2     
  11 N11           -4.2098    -0.0769    -1.9121 N.2     
  12 N12           -6.9641     1.8790    -4.7010 N.am    
  13 N13           -1.9563     2.2397    -3.4261 N.ar    
  14 C14           -0.8062     2.6761    -2.9611 C.ar    
  15 C15           -0.3062     2.2475    -1.7392 C.ar    
  16 C16           -1.0210     1.3484    -0.9922 C.ar    
  17 C17           -8.1722     2.4784    -4.3195 C.2     
  18 C18           -1.6166     1.4123     1.7704 C.3     
  19 C19           -1.3118     1.1869     3.2527 C.3     
  20 C20           -1.1826     2.5870     2.6494 C.3     
  21 O21           -0.4972    -0.6343     0.4753 O.2     
  22 O22            0.8335     1.4376     0.7142 O.2     
  23 C23           -3.7260    -2.2562    -6.0324 C.3     
  24 C24           -2.3907    -2.7005    -6.6353 C.3     
  25 O25           -1.9755    -1.7523    -7.6205 O.3     
  26 C26           -1.7644    -0.4345    -7.1096 C.3     
  27 C27           -3.0745     0.1008    -6.5257 C.3     
  28 N28           -9.1210     2.8844    -5.1300 N.2     
  29 N29          -10.1558     3.4240    -4.3555 N.pl3   
  30 C30           -9.7994     3.3295    -3.0572 C.2     
  31 C31           -8.5815     2.7441    -3.0029 C.2     
  32 C32          -11.4060     3.9924    -4.8656 C.3     
  33 H33           -2.8411    -0.8861    -4.6212 H       
  34 H34           -5.6093    -0.2386    -5.7292 H       
  35 H35           -5.3161    -1.1073    -4.2035 H       
  36 H36           -4.2382     1.6742    -4.8432 H       
  37 H37           -3.2376    -0.5837    -0.0898 H       
  38 H38           -6.7708     1.7322    -5.6401 H       
  39 H39           -0.2370     3.3851    -3.5439 H       
  40 H40            0.6411     2.6209    -1.3791 H       
  41 H41           -2.6607     1.3745     1.4598 H       
  42 H42           -2.1554     1.0012     3.9174 H       
  43 H43           -0.3911     0.6597     3.5027 H       
  44 H44           -0.1769     2.9809     2.5025 H       
  45 H45           -1.9413     3.3224     2.9172 H       
  46 H46           -4.0226    -2.9546    -5.2498 H       
  47 H47           -4.4883    -2.2352    -6.8112 H       
  48 H48           -1.6386    -2.7603    -5.8487 H       
  49 H49           -2.5095    -3.6792    -7.1001 H       
  50 H50           -1.0041    -0.4647    -6.3292 H       
  51 H51           -1.4320     0.2191    -7.9161 H       
  52 H52           -3.8237     0.1694    -7.3145 H       
  53 H53           -2.9052     1.0881    -6.0960 H       
  54 H54          -10.3850     3.6587    -2.2115 H       
  55 H55           -8.0202     2.5261    -2.1063 H       
  56 H56          -12.1590     3.2075    -4.9381 H       
  57 H57          -11.7557     4.7696    -4.1861 H       
  58 H58          -11.2337     4.4228    -5.8520 H       
@<TRIPOS>BOND
   1    1   21 2
   2    1   22 2
   3    1   16 1
   4    1   18 1
   5    2    3 1
   6    2   23 1
   7    2   27 1
   8    2   33 1
   9    3    4 1
  10    3   34 1
  11    3   35 1
  12    4    7 1
  13    4    5 1
  14    4   36 1
  15    5    6 2
  16    5   12 am
  17    7    8 1
  18    7   11 1
  19    8    9 ar
  20    8   13 ar
  21    9   10 1
  22    9   16 ar
  23   10   11 2
  24   10   37 1
  25   12   17 1
  26   12   38 1
  27   13   14 ar
  28   14   15 ar
  29   14   39 1
  30   15   16 ar
  31   15   40 1
  32   17   28 2
  33   17   31 1
  34   18   19 1
  35   18   20 1
  36   18   41 1
  37   19   20 1
  38   19   42 1
  39   19   43 1
  40   20   44 1
  41   20   45 1
  42   23   24 1
  43   23   46 1
  44   23   47 1
  45   24   25 1
  46   24   48 1
  47   24   49 1
  48   25   26 1
  49   26   27 1
  50   26   50 1
  51   26   51 1
  52   27   52 1
  53   27   53 1
  54   28   29 1
  55   29   30 1
  56   29   32 1
  57   30   31 2
  58   30   54 1
  59   31   55 1
  60   32   56 1
  61   32   57 1
  62   32   58 1

#	End of record

