#	Name: ASD01811797
#	Creating user name:	WinNT
#	Creation time:	15. 06. 2019 19:27

#	Modifying user name:	WinNT
#	Modification time:	15. 06. 2019 19:27

#	Program:	/corina/corina34_cracker 3.40 0067  02.08.2006

@<TRIPOS>MOLECULE
ASD01811797
  51   54    0    0    0
SMALL
NO_CHARGES


@<TRIPOS>ATOM
   1 C1            -0.0105     1.3782     0.0106 C.ar    
   2 C2            -0.0005    -0.0065     0.0092 C.ar    
   3 C3            -1.1916    -0.7110     0.0018 C.ar    
   4 C4            -2.3971    -0.0406    -0.0037 C.ar    
   5 C5            -2.4154     1.3555    -0.0018 C.ar    
   6 C6            -1.2074     2.0565     0.0109 C.ar    
   7 C7             1.2888     2.1416     0.0182 C.3     
   8 C8             1.3112    -0.7484     0.0152 C.3     
   9 C9            -1.1715    -2.2179    -0.0007 C.3     
  10 C10           -2.5792    -2.7392     0.1324 C.ar    
  11 C11           -3.3011    -3.0695    -1.0001 C.ar    
  12 C12           -4.5904    -3.5474    -0.8859 C.ar    
  13 C13           -5.1674    -3.6983     0.3764 C.ar    
  14 C14           -4.4346    -3.3640     1.5170 C.ar    
  15 C15           -3.1428    -2.8910     1.3894 C.ar    
  16 F16           -2.4313    -2.5672     2.4913 F       
  17 C17           -6.5053    -4.1934     0.5009 C.1     
  18 N18           -7.5666    -4.5862     0.5997 N.1     
  19 C19           -3.5188     2.3350    -0.0069 C.2     
  20 N20           -3.0304     3.5873    -0.0028 N.am    
  21 C21           -1.5645     3.5219     0.0091 C.3     
  22 O22           -4.7005     2.0502    -0.0144 O.2     
  23 C23           -3.8297     4.8150    -0.0059 C.3     
  24 C24           -4.7296     4.8612     1.2415 C.3     
  25 C25           -6.1855     4.9028     0.7332 C.3     
  26 C26           -6.1114     4.2800    -0.6830 C.3     
  27 C27           -4.7702     4.8301    -1.2286 C.3     
  28 O28           -4.4448     6.0336     2.0073 O.3     
  29 H29           -3.3244    -0.5942    -0.0099 H       
  30 H30            1.6074     2.3267    -1.0077 H       
  31 H31            1.1486     3.0924     0.5323 H       
  32 H32            2.0503     1.5577     0.5353 H       
  33 H33            1.6665    -0.8500     1.0407 H       
  34 H34            1.1711    -1.7377    -0.4205 H       
  35 H35            2.0448    -0.1941    -0.5702 H       
  36 H36           -0.7391    -2.5739    -0.9358 H       
  37 H37           -0.5712    -2.5746     0.8362 H       
  38 H38           -2.8545    -2.9527    -1.9765 H       
  39 H39           -5.1525    -3.8041    -1.7717 H       
  40 H40           -4.8753    -3.4780     2.4964 H       
  41 H41           -1.1753     4.0039     0.9059 H       
  42 H42           -1.1608     4.0041    -0.8811 H       
  43 H43           -3.1758     5.6868    -0.0270 H       
  44 H44           -4.5716     3.9702     1.8491 H       
  45 H45           -6.8319     4.3078     1.3783 H       
  46 H46           -6.5415     5.9316     0.6793 H       
  47 H47           -6.0878     3.1917    -0.6256 H       
  48 H48           -6.9460     4.6175    -1.2976 H       
  49 H49           -4.8977     5.8472    -1.5993 H       
  50 H50           -4.3838     4.1820    -2.0152 H       
  51 H51           -4.9805     6.1202     2.8077 H       
@<TRIPOS>BOND
   1    1    2 ar
   2    1    7 1
   3    1    6 ar
   4    2    3 ar
   5    2    8 1
   6    3    4 ar
   7    3    9 1
   8    4    5 ar
   9    4   29 1
  10    5    6 ar
  11    5   19 1
  12    6   21 1
  13    7   30 1
  14    7   31 1
  15    7   32 1
  16    8   33 1
  17    8   34 1
  18    8   35 1
  19    9   10 1
  20    9   36 1
  21    9   37 1
  22   10   11 ar
  23   10   15 ar
  24   11   12 ar
  25   11   38 1
  26   12   13 ar
  27   12   39 1
  28   13   14 ar
  29   13   17 1
  30   14   15 ar
  31   14   40 1
  32   15   16 1
  33   17   18 3
  34   19   20 am
  35   19   22 2
  36   20   21 1
  37   20   23 1
  38   21   41 1
  39   21   42 1
  40   23   24 1
  41   23   27 1
  42   23   43 1
  43   24   25 1
  44   24   28 1
  45   24   44 1
  46   25   26 1
  47   25   45 1
  48   25   46 1
  49   26   27 1
  50   26   47 1
  51   26   48 1
  52   27   49 1
  53   27   50 1
  54   28   51 1

#	End of record

