#	Name: ASD03091195
#	Creating user name:	WinNT
#	Creation time:	15. 06. 2019 20:30

#	Modifying user name:	WinNT
#	Modification time:	15. 06. 2019 20:30

#	Program:	/corina/corina34_cracker 3.40 0067  02.08.2006

@<TRIPOS>MOLECULE
ASD03091195
  67   71    0    0    0
SMALL
NO_CHARGES


@<TRIPOS>ATOM
   1 C1            -0.9719    -1.2135     0.1016 C.2     
   2 C2            -0.0343    -0.0385    -0.0050 C.3     
   3 O3            -0.5277    -2.3406     0.1581 O.2     
   4 N4            -2.3039    -1.0114     0.1397 N.am    
   5 C5            -3.2154    -2.1536     0.2433 C.3     
   6 C6            -4.5320    -1.6996     0.8767 C.3     
   7 C7            -3.4886    -2.7164    -1.1530 C.3     
   8 N8             3.2582    -1.0680     1.2154 N.2     
   9 C9             2.0314    -0.6498     1.1473 C.2     
  10 N10            1.3499    -0.5182    -0.0216 N.am    
  11 C11            1.9387    -0.8270    -1.2005 C.2     
  12 C12            3.3290    -1.3041    -1.1582 C.ar    
  13 C13            4.0250    -1.6484    -2.3146 C.ar    
  14 C14            5.3326    -2.0920    -2.2122 C.ar    
  15 C15            5.9476    -2.1934    -0.9644 C.ar    
  16 C16            5.2767    -1.8596     0.1772 C.ar    
  17 C17            3.9569    -1.4088     0.1028 C.ar    
  18 O18            1.3405    -0.7145    -2.2547 O.2     
  19 C19            1.3261    -0.2920     2.4301 C.3     
  20 C20            1.9287    -1.0861     3.6022 C.3     
  21 C21            2.4890    -0.0479     4.5962 C.3     
  22 C22            1.6831     1.2400     4.2946 C.3     
  23 C23            1.5411     1.2012     2.7527 C.3     
  24 N24            7.0959    -2.1173    -6.1139 N.3     
  25 C25            5.8673    -2.8654    -5.8068 C.3     
  26 C26            5.1971    -2.3091    -4.5601 C.3     
  27 N27            6.0403    -2.4406    -3.3659 N.3     
  28 C28            7.2593    -1.6310    -3.5009 C.3     
  29 C29            8.4000    -2.4760    -4.0481 C.3     
  30 C30            8.2583    -2.7955    -5.5226 C.3     
  31 C31            7.0686    -0.6979    -5.8328 C.3     
  32 C32            6.9534    -0.4076    -4.3454 C.3     
  33 H33           -0.2403     0.5084    -0.9250 H       
  34 H34           -0.1799     0.6213     0.8503 H       
  35 H35           -2.6590    -0.1097     0.0985 H       
  36 H36           -2.7610    -2.9260     0.8638 H       
  37 H37           -4.9864    -0.9272     0.2562 H       
  38 H38           -5.2102    -2.5494     0.9538 H       
  39 H39           -4.3374    -1.2987     1.8715 H       
  40 H40           -3.9430    -1.9441    -1.7735 H       
  41 H41           -2.5506    -3.0399    -1.6042 H       
  42 H42           -4.1667    -3.5663    -1.0759 H       
  43 H43            3.5495    -1.5706    -3.2812 H       
  44 H44            6.9682    -2.5410    -0.9003 H       
  45 H45            5.7660    -1.9441     1.1363 H       
  46 H46            0.2609    -0.5062     2.3425 H       
  47 H47            1.1559    -1.6851     4.0840 H       
  48 H48            2.7314    -1.7303     3.2432 H       
  49 H49            2.3193    -0.3724     5.6228 H       
  50 H50            3.5516     0.1165     4.4177 H       
  51 H51            0.7046     1.2046     4.7737 H       
  52 H52            2.2366     2.1247     4.6093 H       
  53 H53            2.4506     1.5672     2.2765 H       
  54 H54            0.6797     1.7882     2.4340 H       
  55 H55            5.1797    -2.7879    -6.6490 H       
  56 H56            6.1167    -3.9137    -5.6429 H       
  57 H57            4.9738    -1.2543    -4.7202 H       
  58 H58            4.2625    -2.8445    -4.3931 H       
  59 H59            7.5432    -1.2811    -2.5083 H       
  60 H60            9.3366    -1.9400    -3.8950 H       
  61 H61            8.4407    -3.4115    -3.4901 H       
  62 H62            8.1416    -3.8724    -5.6438 H       
  63 H63            9.1603    -2.4756    -6.0443 H       
  64 H64            7.9849    -0.2449    -6.2115 H       
  65 H65            6.2172    -0.2520    -6.3470 H       
  66 H66            5.9397    -0.0712    -4.1276 H       
  67 H67            7.6524     0.3870    -4.0843 H       
@<TRIPOS>BOND
   1    1    2 1
   2    1    3 2
   3    1    4 am
   4    2   10 1
   5    2   33 1
   6    2   34 1
   7    4    5 1
   8    4   35 1
   9    5    6 1
  10    5    7 1
  11    5   36 1
  12    6   37 1
  13    6   38 1
  14    6   39 1
  15    7   40 1
  16    7   41 1
  17    7   42 1
  18    8    9 2
  19    8   17 1
  20    9   10 1
  21    9   19 1
  22   10   11 am
  23   11   12 1
  24   11   18 2
  25   12   13 ar
  26   12   17 ar
  27   13   14 ar
  28   13   43 1
  29   14   15 ar
  30   14   27 1
  31   15   16 ar
  32   15   44 1
  33   16   17 ar
  34   16   45 1
  35   19   20 1
  36   19   23 1
  37   19   46 1
  38   20   21 1
  39   20   47 1
  40   20   48 1
  41   21   22 1
  42   21   49 1
  43   21   50 1
  44   22   23 1
  45   22   51 1
  46   22   52 1
  47   23   53 1
  48   23   54 1
  49   24   25 1
  50   24   30 1
  51   24   31 1
  52   25   26 1
  53   25   55 1
  54   25   56 1
  55   26   27 1
  56   26   57 1
  57   26   58 1
  58   27   28 1
  59   28   29 1
  60   28   32 1
  61   28   59 1
  62   29   30 1
  63   29   60 1
  64   29   61 1
  65   30   62 1
  66   30   63 1
  67   31   32 1
  68   31   64 1
  69   31   65 1
  70   32   66 1
  71   32   67 1

#	End of record

