#	Name: ASD00122054
#	Creating user name:	WinNT
#	Creation time:	15. 06. 2019 18:31

#	Modifying user name:	WinNT
#	Modification time:	15. 06. 2019 18:31

#	Program:	/corina/corina34_cracker 3.40 0067  02.08.2006

@<TRIPOS>MOLECULE
ASD00122054
  33   34    0    0    0
SMALL
NO_CHARGES


@<TRIPOS>ATOM
   1 C1             0.0835     1.4049     0.4236 C.ar    
   2 C2             0.0844     0.0279     0.4258 C.ar    
   3 C3             1.2728    -0.6685     0.1900 C.ar    
   4 C4             2.4560     0.0363    -0.0471 C.ar    
   5 C5             2.4466     1.4132    -0.0476 C.ar    
   6 C6             1.2625     2.1022     0.1873 C.ar    
   7 O7             1.2574     3.4593     0.1860 O.3     
   8 C8             0.0063     4.1036     0.4343 C.3     
   9 C9             0.1973     5.6211     0.3937 C.3     
  10 C10            1.2784    -2.1442     0.1919 C.2     
  11 O11            0.2481    -2.7558     0.3989 O.2     
  12 N12            2.4256    -2.8141    -0.0357 N.am    
  13 C13            2.4522    -4.2089     0.0626 C.ar    
  14 C14            1.3514    -4.9558    -0.3365 C.ar    
  15 C15            1.3809    -6.3330    -0.2381 C.ar    
  16 C16            2.5046    -6.9684     0.2576 C.ar    
  17 C17            3.6022    -6.2276     0.6562 C.ar    
  18 C18            3.5816    -4.8505     0.5542 C.ar    
  19 H19           -0.8354     1.9438     0.6014 H       
  20 H20           -0.8320    -0.5132     0.6099 H       
  21 H21            3.3765    -0.4983    -0.2295 H       
  22 H22            3.3607     1.9587    -0.2305 H       
  23 H23           -0.7129     3.8073    -0.3292 H       
  24 H24           -0.3648     3.8103     1.4164 H       
  25 H25            0.9165     5.9174     1.1572 H       
  26 H26            0.5684     5.9144    -0.5883 H       
  27 H27           -0.7570     6.1126     0.5831 H       
  28 H28            3.2327    -2.3287    -0.2677 H       
  29 H29            0.4731    -4.4601    -0.7231 H       
  30 H30            0.5252    -6.9144    -0.5483 H       
  31 H31            2.5250    -8.0455     0.3338 H       
  32 H32            4.4780    -6.7269     1.0436 H       
  33 H33            4.4393    -4.2725     0.8655 H       
@<TRIPOS>BOND
   1    1    2 ar
   2    1    6 ar
   3    1   19 1
   4    2    3 ar
   5    2   20 1
   6    3    4 ar
   7    3   10 1
   8    4    5 ar
   9    4   21 1
  10    5    6 ar
  11    5   22 1
  12    6    7 1
  13    7    8 1
  14    8    9 1
  15    8   23 1
  16    8   24 1
  17    9   25 1
  18    9   26 1
  19    9   27 1
  20   10   11 2
  21   10   12 am
  22   12   13 1
  23   12   28 1
  24   13   14 ar
  25   13   18 ar
  26   14   15 ar
  27   14   29 1
  28   15   16 ar
  29   15   30 1
  30   16   17 ar
  31   16   31 1
  32   17   18 ar
  33   17   32 1
  34   18   33 1

#	End of record

