#	Name: ASD07931926
#	Creating user name:	WinNT
#	Creation time:	15. 06. 2019 21:13

#	Modifying user name:	WinNT
#	Modification time:	15. 06. 2019 21:13

#	Program:	/corina/corina34_cracker 3.40 0067  02.08.2006

@<TRIPOS>MOLECULE
ASD07931926
  49   51    0    0    0
SMALL
NO_CHARGES


@<TRIPOS>ATOM
   1 C1            -0.0677     1.4235     0.0669 C.2     
   2 N2             0.0306     0.0795     0.0464 N.am    
   3 O3             0.9437     2.1107     0.0641 O.co2   
   4 O4            -1.1685     1.9558     0.0832 O.co2   
   5 S5             1.3605    -2.2788    -0.0598 S.3     
   6 C6             1.2671    -0.5209    -0.1011 C.2     
   7 N7             2.2909     0.2220    -0.2616 N.2     
   8 C8             3.6837    -0.1194    -0.4240 C.3     
   9 C9             3.9925    -1.6167    -0.2790 C.3     
  10 C10            2.9379    -2.4962    -0.9238 C.3     
  11 O11            4.3043    -0.5370     1.8315 O.3     
  12 C12            4.4601     0.4504     0.7986 C.3     
  13 C13            4.0495    -1.8210     1.2432 C.3     
  14 C14            5.1796    -2.7899     1.5970 C.3     
  15 F15            6.3991    -2.2648     1.1561 F       
  16 F16            5.2232    -2.9691     2.9838 F       
  17 F17            4.9499    -4.0215     0.9746 F       
  18 C18            4.2254     0.4340    -1.7168 C.ar    
  19 C19            5.5518     0.2286    -2.0548 C.ar    
  20 C20            6.0526     0.7363    -3.2440 C.ar    
  21 C21            5.2265     1.4490    -4.0942 C.ar    
  22 C22            3.8959     1.6552    -3.7554 C.ar    
  23 C23            3.3962     1.1408    -2.5659 C.ar    
  24 F24            7.3477     0.5352    -3.5721 F       
  25 F25            6.3596    -0.4670    -1.2249 F       
  26 N26            3.0588     2.3753    -4.6130 N.pl3   
  27 C27           -1.1728    -0.7451     0.1804 C.3     
  28 C28           -2.4024     0.1597     0.2815 C.3     
  29 C29           -1.3073    -1.6537    -1.0433 C.3     
  30 C30           -1.0654    -1.6026     1.4430 C.3     
  31 H31            4.9683    -1.8345    -0.7130 H       
  32 H32            3.2463    -3.5397    -0.8604 H       
  33 H33            2.8210    -2.2147    -1.9703 H       
  34 H34            5.5142     0.5776     0.5520 H       
  35 H35            4.0267     1.3997     1.1136 H       
  36 H36            3.0968    -2.2111     1.6014 H       
  37 H37            5.6161     1.8450    -5.0204 H       
  38 H38            2.3603     1.2968    -2.3030 H       
  39 H39            3.4075     2.7312    -5.4453 H       
  40 H40            2.1293     2.5190    -4.3757 H       
  41 H41           -2.4789     0.7706    -0.6180 H       
  42 H42           -3.2978    -0.4539     0.3812 H       
  43 H43           -2.3066     0.8069     1.1532 H       
  44 H44           -0.4831    -2.3668    -1.0587 H       
  45 H45           -2.2534    -2.1928    -0.9933 H       
  46 H46           -1.2814    -1.0487    -1.9496 H       
  47 H47           -1.0500    -0.9566     2.3207 H       
  48 H48           -1.9226    -2.2735     1.5005 H       
  49 H49           -0.1472    -2.1888     1.4071 H       
@<TRIPOS>BOND
   1    1    2 am
   2    1    3 ar
   3    1    4 ar
   4    2    6 1
   5    2   27 1
   6    5    6 1
   7    5   10 1
   8    6    7 2
   9    7    8 1
  10    8   12 1
  11    8   18 1
  12    8    9 1
  13    9   10 1
  14    9   13 1
  15    9   31 1
  16   10   32 1
  17   10   33 1
  18   11   12 1
  19   11   13 1
  20   12   34 1
  21   12   35 1
  22   13   14 1
  23   13   36 1
  24   14   15 1
  25   14   16 1
  26   14   17 1
  27   18   19 ar
  28   18   23 ar
  29   19   20 ar
  30   19   25 1
  31   20   21 ar
  32   20   24 1
  33   21   22 ar
  34   21   37 1
  35   22   23 ar
  36   22   26 1
  37   23   38 1
  38   26   39 1
  39   26   40 1
  40   27   28 1
  41   27   30 1
  42   27   29 1
  43   28   41 1
  44   28   42 1
  45   28   43 1
  46   29   44 1
  47   29   45 1
  48   29   46 1
  49   30   47 1
  50   30   48 1
  51   30   49 1

#	End of record

