#	Name: ASD01903108
#	Creating user name:	WinNT
#	Creation time:	15. 06. 2019 19:54

#	Modifying user name:	WinNT
#	Modification time:	15. 06. 2019 19:54

#	Program:	/corina/corina34_cracker 3.40 0067  02.08.2006

@<TRIPOS>MOLECULE
ASD01903108
  47   51    0    0    0
SMALL
NO_CHARGES


@<TRIPOS>ATOM
   1 C1             0.2748     1.6423     0.1486 C.3     
   2 C2             0.2864     0.1110     0.2346 C.3     
   3 C3             0.7519    -0.4465    -1.1170 C.3     
   4 C4             2.1753     0.0648    -1.4170 C.3     
   5 C5             2.6476     0.9590    -0.2631 C.3     
   6 C6             1.6875     2.1496    -0.1491 C.3     
   7 C7             2.5441     0.1508     1.0217 C.2     
   8 C8             1.3155    -0.2904     1.2807 C.2     
   9 C9             0.9298    -1.9448    -1.0027 C.2     
  10 N10            2.2180    -2.2516    -1.1996 N.am    
  11 C11            3.0083    -1.1982    -1.4410 C.2     
  12 O12            4.2020    -1.2484    -1.6469 O.2     
  13 O13            0.0460    -2.7412    -0.7694 O.2     
  14 C14            2.7003    -3.5689    -1.1566 C.ar    
  15 C15            3.1466    -4.1063     0.0443 C.ar    
  16 C16            3.6212    -5.4030     0.0864 C.ar    
  17 C17            3.6520    -6.1686    -1.0718 C.ar    
  18 C18            3.2055    -5.6304    -2.2722 C.ar    
  19 C19            2.7260    -4.3367    -2.3129 C.ar    
  20 Cl20           3.1083    -3.1484     1.4916 Cl      
  21 N21            4.1331    -7.4820    -1.0299 N.am    
  22 C22            3.9009    -8.2504     0.0527 C.2     
  23 C23            4.3194    -9.6714     0.0559 C.ar    
  24 N24            4.9227   -10.1821    -1.0103 N.ar    
  25 C25            5.3100   -11.4385    -1.0482 C.ar    
  26 C26            5.1002   -12.2807     0.0318 C.ar    
  27 C27            4.4734   -11.7882     1.1660 C.ar    
  28 C28            4.0815   -10.4591     1.1803 C.ar    
  29 O29            3.3480    -7.7776     1.0263 O.2     
  30 H30           -0.3991     1.9560    -0.6486 H       
  31 H31           -0.0674     2.0566     1.0969 H       
  32 H32           -0.7036    -0.2684     0.4878 H       
  33 H33            0.0586    -0.1778    -1.9139 H       
  34 H34            2.2127     0.5961    -2.3680 H       
  35 H35            3.6682     1.3016    -0.4336 H       
  36 H36            1.6838     2.7042    -1.0875 H       
  37 H37            2.0156     2.8046     0.6580 H       
  38 H38            3.3896    -0.0470     1.6640 H       
  39 H39            1.0716    -0.8786     2.1530 H       
  40 H40            3.9686    -5.8211     1.0196 H       
  41 H41            3.2295    -6.2259    -3.1729 H       
  42 H42            2.3787    -3.9188    -3.2463 H       
  43 H43            4.6338    -7.8393    -1.7799 H       
  44 H44            5.7980   -11.8189    -1.9334 H       
  45 H45            5.4215   -13.3110    -0.0098 H       
  46 H46            4.2981   -12.4249     2.0206 H       
  47 H47            3.5907   -10.0421     2.0472 H       
@<TRIPOS>BOND
   1    1    2 1
   2    1    6 1
   3    1   30 1
   4    1   31 1
   5    2    3 1
   6    2    8 1
   7    2   32 1
   8    3    4 1
   9    3    9 1
  10    3   33 1
  11    4    5 1
  12    4   11 1
  13    4   34 1
  14    5    6 1
  15    5    7 1
  16    5   35 1
  17    6   36 1
  18    6   37 1
  19    7    8 2
  20    7   38 1
  21    8   39 1
  22    9   10 am
  23    9   13 2
  24   10   11 am
  25   10   14 1
  26   11   12 2
  27   14   15 ar
  28   14   19 ar
  29   15   16 ar
  30   15   20 1
  31   16   17 ar
  32   16   40 1
  33   17   18 ar
  34   17   21 1
  35   18   19 ar
  36   18   41 1
  37   19   42 1
  38   21   22 am
  39   21   43 1
  40   22   23 1
  41   22   29 2
  42   23   24 ar
  43   23   28 ar
  44   24   25 ar
  45   25   26 ar
  46   25   44 1
  47   26   27 ar
  48   26   45 1
  49   27   28 ar
  50   27   46 1
  51   28   47 1

#	End of record

