#	Name: ASD04881152
#	Creating user name:	WinNT
#	Creation time:	15. 06. 2019 20:53

#	Modifying user name:	WinNT
#	Modification time:	15. 06. 2019 20:53

#	Program:	/corina/corina34_cracker 3.40 0067  02.08.2006

@<TRIPOS>MOLECULE
ASD04881152
  78   82    0    0    0
SMALL
NO_CHARGES


@<TRIPOS>ATOM
   1 C1             0.3166     1.2620     0.0276 C.2     
   2 C2             1.5765     1.7327     0.0484 C.2     
   3 C3             1.9744     3.1863     0.0435 C.3     
   4 O4             2.4197     0.6877     0.0750 O.3     
   5 C5             1.7156    -0.4560     0.0717 C.2     
   6 C6             0.4062    -0.1489     0.0426 C.2     
   7 N7             2.0760     3.6694     1.4228 N.pl3   
   8 C8             2.4344     4.9996     1.6741 C.ar    
   9 C9             2.4194     5.4929     2.9821 C.ar    
  10 C10            2.7748     6.8124     3.2331 C.ar    
  11 C11            3.1433     7.6396     2.1945 C.ar    
  12 C12            3.1609     7.1530     0.8850 C.ar    
  13 C13            2.8087     5.8237     0.6304 C.ar    
  14 C14            3.5555     8.0386    -0.2269 C.2     
  15 O15            3.5705     7.6141    -1.3663 O.2     
  16 N16            3.8991     9.3182     0.0201 N.am    
  17 N17            2.0470     4.6603     4.0355 N.3     
  18 C18            0.6280     4.2904     3.9382 C.3     
  19 C19            0.2795     3.3149     5.0648 C.3     
  20 N20            0.5691     3.9438     6.3610 N.3     
  21 C21            1.9880     4.3137     6.4583 C.3     
  22 C22            2.3366     5.2892     5.3317 C.3     
  23 C23            0.1958     3.1092     7.4169 C.ar    
  24 C24           -1.1454     2.8200     7.6351 C.ar    
  25 C25           -1.5110     1.9942     8.6796 C.ar    
  26 C26           -0.5436     1.4553     9.5084 C.ar    
  27 C27            0.7921     1.7410     9.2940 C.ar    
  28 C28            1.1651     2.5618     8.2475 C.ar    
  29 C29           -2.2002     3.4075     6.7333 C.3     
  30 C30            4.2909    10.1977    -1.0841 C.3     
  31 C31            2.2942    -1.8472     0.0955 C.3     
  32 C32            4.6293    11.5852    -0.5354 C.3     
  33 C33            5.0385    12.5037    -1.6886 C.3     
  34 N34            5.3625    13.8324    -1.1633 N.am    
  35 C35            6.7009    14.2459    -0.7253 C.3     
  36 C36            6.4814    15.5140     0.1292 C.3     
  37 C37            5.1492    16.0524    -0.4421 C.3     
  38 C38            4.4735    14.8312    -1.0259 C.2     
  39 O39            3.2999    14.7624    -1.3241 O.2     
  40 H40           -0.5896     1.8491     0.0079 H       
  41 H41            2.9387     3.2973    -0.4524 H       
  42 H42            1.2223     3.7671    -0.4905 H       
  43 H43           -0.4183    -0.8464     0.0326 H       
  44 H44            1.8950     3.0679     2.1619 H       
  45 H45            2.7618     7.1908     4.2446 H       
  46 H46            3.4183     8.6650     2.3928 H       
  47 H47            2.8250     5.4436    -0.3803 H       
  48 H48            3.8871     9.6568     0.9291 H       
  49 H49            0.0120     5.1852     4.0283 H       
  50 H50            0.4413     3.8154     2.9751 H       
  51 H51           -0.7794     3.0617     5.0120 H       
  52 H52            0.8761     2.4088     4.9588 H       
  53 H53            2.1748     4.7887     7.4214 H       
  54 H54            2.6040     3.4190     6.3682 H       
  55 H55            3.3955     5.5424     5.3845 H       
  56 H56            1.7400     6.1953     5.4376 H       
  57 H57           -2.5534     1.7690     8.8498 H       
  58 H58           -0.8323     0.8102    10.3250 H       
  59 H59            1.5449     1.3186     9.9430 H       
  60 H60            2.2089     2.7810     8.0779 H       
  61 H61           -2.4428     2.6944     5.9454 H       
  62 H62           -3.0959     3.6247     7.3152 H       
  63 H63           -1.8248     4.3283     6.2869 H       
  64 H64            5.1646     9.7827    -1.5867 H       
  65 H65            3.4676    10.2785    -1.7938 H       
  66 H66            3.3824    -1.7878     0.1166 H       
  67 H67            1.9417    -2.3722     0.9834 H       
  68 H68            1.9771    -2.3880    -0.7962 H       
  69 H69            3.7557    12.0002    -0.0328 H       
  70 H70            5.4526    11.5044     0.1744 H       
  71 H71            5.9121    12.0888    -2.1912 H       
  72 H72            4.2152    12.5845    -2.3984 H       
  73 H73            7.1604    13.4610    -0.1245 H       
  74 H74            7.3258    14.4760    -1.5883 H       
  75 H75            6.3793    15.2605     1.1843 H       
  76 H76            7.2886    16.2307    -0.0219 H       
  77 H77            4.5409    16.4853     0.3521 H       
  78 H78            5.3388    16.7887    -1.2231 H       
@<TRIPOS>BOND
   1    1    6 1
   2    1    2 2
   3    1   40 1
   4    2    3 1
   5    2    4 1
   6    3    7 1
   7    3   41 1
   8    3   42 1
   9    4    5 1
  10    5    6 2
  11    5   31 1
  12    6   43 1
  13    7    8 1
  14    7   44 1
  15    8    9 ar
  16    8   13 ar
  17    9   10 ar
  18    9   17 1
  19   10   11 ar
  20   10   45 1
  21   11   12 ar
  22   11   46 1
  23   12   13 ar
  24   12   14 1
  25   13   47 1
  26   14   15 2
  27   14   16 am
  28   16   30 1
  29   16   48 1
  30   17   18 1
  31   17   22 1
  32   18   19 1
  33   18   49 1
  34   18   50 1
  35   19   20 1
  36   19   51 1
  37   19   52 1
  38   20   21 1
  39   20   23 1
  40   21   22 1
  41   21   53 1
  42   21   54 1
  43   22   55 1
  44   22   56 1
  45   23   24 ar
  46   23   28 ar
  47   24   25 ar
  48   24   29 1
  49   25   26 ar
  50   25   57 1
  51   26   27 ar
  52   26   58 1
  53   27   28 ar
  54   27   59 1
  55   28   60 1
  56   29   61 1
  57   29   62 1
  58   29   63 1
  59   30   32 1
  60   30   64 1
  61   30   65 1
  62   31   66 1
  63   31   67 1
  64   31   68 1
  65   32   33 1
  66   32   69 1
  67   32   70 1
  68   33   34 1
  69   33   71 1
  70   33   72 1
  71   34   35 1
  72   34   38 am
  73   35   36 1
  74   35   73 1
  75   35   74 1
  76   36   37 1
  77   36   75 1
  78   36   76 1
  79   37   38 1
  80   37   77 1
  81   37   78 1
  82   38   39 2

#	End of record

