#	Name: ASD00061054
#	Creating user name:	WinNT
#	Creation time:	15. 06. 2019 18:29

#	Modifying user name:	WinNT
#	Modification time:	15. 06. 2019 18:29

#	Program:	/corina/corina34_cracker 3.40 0067  02.08.2006

@<TRIPOS>MOLECULE
ASD00061054
  47   49    0    0    0
SMALL
NO_CHARGES


@<TRIPOS>ATOM
   1 C1             0.9976     0.3381    -0.5676 C.ar    
   2 C2             0.3645    -1.0294    -0.5758 C.3     
   3 C3            -0.1647    -1.3549     0.8223 C.3     
   4 C4            -0.6870    -2.7683     0.8453 C.2     
   5 O5            -0.6405    -3.4485    -0.1579 O.2     
   6 C6            -1.2522    -3.3222     2.0824 C.ar    
   7 C7            -1.7382    -4.6354     2.1064 C.ar    
   8 C8            -2.2645    -5.1480     3.2641 C.ar    
   9 C9            -2.3162    -4.3661     4.4134 C.ar    
  10 C10           -1.8348    -3.0611     4.3948 C.ar    
  11 C11           -1.3017    -2.5409     3.2436 C.ar    
  12 C12           -0.7926    -1.0497    -1.5766 C.3     
  13 C13            2.3319     0.4838    -0.8983 C.ar    
  14 C14            2.9131     1.7378    -0.8909 C.ar    
  15 C15            2.1592     2.8474    -0.5524 C.ar    
  16 C16            0.8238     2.7009    -0.2215 C.ar    
  17 C17            0.2423     1.4471    -0.2348 C.ar    
  18 Cl18           2.8886     4.4227    -0.5424 Cl      
  19 C19           -0.2549    -0.8509    -2.9703 C.2     
  20 O20            0.9320    -0.7076    -3.1452 O.2     
  21 O21           -1.0946    -0.8329    -4.0174 O.3     
  22 O22           -2.8383    -4.8777     5.5560 O.3     
  23 C23           -2.0023    -5.5380     6.3996 C.ar    
  24 C24           -2.5090    -6.1712     7.5256 C.ar    
  25 C25           -1.6570    -6.8417     8.3816 C.ar    
  26 C26           -0.3004    -6.8822     8.1172 C.ar    
  27 C27            0.2071    -6.2517     6.9961 C.ar    
  28 C28           -0.6413    -5.5850     6.1336 C.ar    
  29 H29            1.1080    -1.7722    -0.8649 H       
  30 H30            0.6417    -1.2536     1.5487 H       
  31 H31           -0.9703    -0.6657     1.0754 H       
  32 H32           -1.6988    -5.2432     1.2145 H       
  33 H33           -2.6399    -6.1605     3.2835 H       
  34 H34           -1.8772    -2.4581     5.2897 H       
  35 H35           -0.9244    -1.5290     3.2313 H       
  36 H36           -1.3062    -2.0094    -1.5188 H       
  37 H37           -1.4923    -0.2483    -1.3394 H       
  38 H38            2.9204    -0.3825    -1.1622 H       
  39 H39            3.9557     1.8514    -1.1490 H       
  40 H40            0.2348     3.5667     0.0427 H       
  41 H41           -0.8001     1.3327     0.0235 H       
  42 H42           -0.7031    -0.7024    -4.8919 H       
  43 H43           -3.5684    -6.1395     7.7327 H       
  44 H44           -2.0507    -7.3344     9.2583 H       
  45 H45            0.3641    -7.4070     8.7877 H       
  46 H46            1.2672    -6.2842     6.7923 H       
  47 H47           -0.2451    -5.0971     5.2553 H       
@<TRIPOS>BOND
   1    1    2 1
   2    1   13 ar
   3    1   17 ar
   4    2    3 1
   5    2   12 1
   6    2   29 1
   7    3    4 1
   8    3   30 1
   9    3   31 1
  10    4    5 2
  11    4    6 1
  12    6    7 ar
  13    6   11 ar
  14    7    8 ar
  15    7   32 1
  16    8    9 ar
  17    8   33 1
  18    9   10 ar
  19    9   22 1
  20   10   11 ar
  21   10   34 1
  22   11   35 1
  23   12   19 1
  24   12   36 1
  25   12   37 1
  26   13   14 ar
  27   13   38 1
  28   14   15 ar
  29   14   39 1
  30   15   16 ar
  31   15   18 1
  32   16   17 ar
  33   16   40 1
  34   17   41 1
  35   19   20 2
  36   19   21 1
  37   21   42 1
  38   22   23 1
  39   23   24 ar
  40   23   28 ar
  41   24   25 ar
  42   24   43 1
  43   25   26 ar
  44   25   44 1
  45   26   27 ar
  46   26   45 1
  47   27   28 ar
  48   27   46 1
  49   28   47 1

#	End of record

