#	Name: ASD04930057
#	Creating user name:	WinNT
#	Creation time:	15. 06. 2019 20:56

#	Modifying user name:	WinNT
#	Modification time:	15. 06. 2019 20:56

#	Program:	/corina/corina34_cracker 3.40 0067  02.08.2006

@<TRIPOS>MOLECULE
ASD04930057
  73   75    0    0    0
SMALL
NO_CHARGES


@<TRIPOS>ATOM
   1 C1             2.6862     1.2219     2.2506 C.ar    
   2 C2             2.6231    -0.1393     2.1583 C.ar    
   3 C3             2.3980    -0.7526     0.9336 C.ar    
   4 C4             2.2343    -0.0005    -0.2092 C.ar    
   5 C5             2.2940     1.3891    -0.1400 C.ar    
   6 C6             2.5223     2.0058     1.1027 C.ar    
   7 C7             2.5864     3.4688     1.1826 C.2     
   8 N8             2.1306     2.1487    -1.2801 N.am    
   9 C9             2.1829     3.4911    -1.2484 C.2     
  10 C10            2.4157     4.2038     0.0071 C.2     
  11 O11            2.8042     4.0888     2.3612 O.3     
  12 O12            2.0340     4.1228    -2.2792 O.2     
  13 C13            2.4707     5.6707     0.0315 C.2     
  14 O14            1.4433     6.3192    -0.0349 O.2     
  15 N15            3.6592     6.2989     0.1274 N.am    
  16 N16            3.7222     7.6958     0.0406 N.am    
  17 C17            4.9107     8.3241     0.1365 C.2     
  18 C18            4.9783     9.8267     0.0431 C.3     
  19 O19            5.9257     7.6803     0.2980 O.2     
  20 C20            6.4327    10.2813     0.1817 C.3     
  21 C21            6.5014    11.8068     0.0869 C.3     
  22 C22            7.9557    12.2614     0.2254 C.3     
  23 C23            8.0244    13.7869     0.1306 C.3     
  24 C24            9.4787    14.2415     0.2692 C.3     
  25 C25            9.5474    15.7671     0.1743 C.3     
  26 C26           11.0017    16.2217     0.3129 C.3     
  27 C27           11.0705    17.7472     0.2181 C.3     
  28 C28           12.5248    18.2018     0.3566 C.3     
  29 C29           12.5935    19.7273     0.2618 C.3     
  30 C30            1.8943     1.4742    -2.5589 C.3     
  31 C31            0.3899     1.2887    -2.7674 C.3     
  32 C32            0.0264     0.6976    -4.1397 C.3     
  33 C33           -0.1623    -0.0073    -2.1506 C.3     
  34 C34           -1.0355    -0.1413    -3.4093 C.3     
  35 H35            2.8577     1.6923     3.2076 H       
  36 H36            2.7498    -0.7431     3.0448 H       
  37 H37            2.3510    -1.8300     0.8758 H       
  38 H38            2.0603    -0.4879    -1.1571 H       
  39 H39            2.9063     5.0476     2.2882 H       
  40 H40            4.4710     5.7840     0.2565 H       
  41 H41            2.9104     8.2108    -0.0886 H       
  42 H42            4.5874    10.1487    -0.9221 H       
  43 H43            4.3822    10.2676     0.8420 H       
  44 H44            6.8236     9.9593     1.1468 H       
  45 H45            7.0288     9.8404    -0.6173 H       
  46 H46            6.1104    12.1288    -0.8783 H       
  47 H47            5.9052    12.2477     0.8858 H       
  48 H48            8.3466    11.9394     1.1906 H       
  49 H49            8.5519    11.8205    -0.5735 H       
  50 H50            7.6334    14.1090    -0.8346 H       
  51 H51            7.4282    14.2278     0.9295 H       
  52 H52            9.8697    13.9195     1.2343 H       
  53 H53           10.0749    13.8006    -0.5298 H       
  54 H54            9.1565    16.0891    -0.7908 H       
  55 H55            8.9513    16.2080     0.9733 H       
  56 H56           11.3927    15.8996     1.2781 H       
  57 H57           11.5979    15.7808    -0.4860 H       
  58 H58           10.6795    18.0692    -0.7471 H       
  59 H59           10.4743    18.1881     1.0170 H       
  60 H60           12.9157    17.8797     1.3218 H       
  61 H61           13.1210    17.7609    -0.4423 H       
  62 H62           12.2025    20.0493    -0.7033 H       
  63 H63           11.9973    20.1682     1.0608 H       
  64 H64           13.6296    20.0512     0.3605 H       
  65 H65            2.3015     2.0787    -3.3693 H       
  66 H66            2.3829     0.4999    -2.5515 H       
  67 H67           -0.1860     2.1771    -2.5082 H       
  68 H68           -0.3938     1.4272    -4.8320 H       
  69 H69            0.8240     0.1019    -4.5837 H       
  70 H70            0.5837    -0.7957    -2.0508 H       
  71 H71           -0.7348     0.1533    -1.2371 H       
  72 H72           -2.0022     0.3553    -3.3250 H       
  73 H73           -1.1146    -1.1636    -3.7791 H       
@<TRIPOS>BOND
   1    1    2 ar
   2    1    6 ar
   3    1   35 1
   4    2    3 ar
   5    2   36 1
   6    3    4 ar
   7    3   37 1
   8    4    5 ar
   9    4   38 1
  10    5    6 ar
  11    5    8 1
  12    6    7 1
  13    7   10 2
  14    7   11 1
  15    8    9 am
  16    8   30 1
  17    9   10 1
  18    9   12 2
  19   10   13 1
  20   11   39 1
  21   13   14 2
  22   13   15 am
  23   15   16 1
  24   15   40 1
  25   16   17 am
  26   16   41 1
  27   17   18 1
  28   17   19 2
  29   18   20 1
  30   18   42 1
  31   18   43 1
  32   20   21 1
  33   20   44 1
  34   20   45 1
  35   21   22 1
  36   21   46 1
  37   21   47 1
  38   22   23 1
  39   22   48 1
  40   22   49 1
  41   23   24 1
  42   23   50 1
  43   23   51 1
  44   24   25 1
  45   24   52 1
  46   24   53 1
  47   25   26 1
  48   25   54 1
  49   25   55 1
  50   26   27 1
  51   26   56 1
  52   26   57 1
  53   27   28 1
  54   27   58 1
  55   27   59 1
  56   28   29 1
  57   28   60 1
  58   28   61 1
  59   29   62 1
  60   29   63 1
  61   29   64 1
  62   30   31 1
  63   30   65 1
  64   30   66 1
  65   31   32 1
  66   31   33 1
  67   31   67 1
  68   32   34 1
  69   32   68 1
  70   32   69 1
  71   33   34 1
  72   33   70 1
  73   33   71 1
  74   34   72 1
  75   34   73 1

#	End of record

