#	Name: ASD01940056
#	Creating user name:	WinNT
#	Creation time:	15. 06. 2019 20:11

#	Modifying user name:	WinNT
#	Modification time:	15. 06. 2019 20:11

#	Program:	/corina/corina34_cracker 3.40 0067  02.08.2006

@<TRIPOS>MOLECULE
ASD01940056
  53   55    0    0    0
SMALL
NO_CHARGES


@<TRIPOS>ATOM
   1 C1            -0.1653     1.1880    -0.0603 C.ar    
   2 C2            -0.1626    -0.0642    -0.6614 C.ar    
   3 C3            -1.2727    -0.8793    -0.5628 C.ar    
   4 C4            -2.3909    -0.4477     0.1361 C.ar    
   5 C5            -2.3945     0.8032     0.7365 C.ar    
   6 C6            -1.2829     1.6170     0.6440 C.ar    
   7 N7             0.9596     2.0145    -0.1594 N.pl3   
   8 C8             0.8042     3.3858    -0.2530 C.2     
   9 C9             1.8030     4.3489    -0.2308 C.2     
  10 C10            1.3232     5.6544    -0.3471 C.2     
  11 N11            0.0376     5.7990    -0.4583 N.2     
  12 S12           -0.6674     4.2585    -0.4292 S.3     
  13 O13            2.1615     6.7232    -0.3436 O.3     
  14 C14            3.2325     4.0245    -0.0968 C.2     
  15 N15            3.9974     3.8012    -1.2227 N.pl3   
  16 N16            3.7769     3.9481     1.0889 N.2     
  17 O17           -3.4838    -1.2507     0.2324 O.3     
  18 C18           -3.3713    -2.3977     0.9525 C.ar    
  19 C19           -2.2103    -2.6599     1.6644 C.ar    
  20 C20           -2.0984    -3.8279     2.3964 C.ar    
  21 C21           -3.1431    -4.7346     2.4185 C.ar    
  22 C22           -4.4210    -3.3068     0.9814 C.ar    
  23 C23           -4.3015    -4.4757     1.7091 C.ar    
  24 Cl24          -0.6455    -4.1568     3.2878 Cl      
  25 Cl25          -5.8788    -2.9787     0.0978 Cl      
  26 C26            5.4202     3.4783    -1.0894 C.3     
  27 C27            5.5826     1.9744    -0.8597 C.3     
  28 C28            6.1566     3.8814    -2.3685 C.3     
  29 O29            5.1410     1.2651    -2.0190 O.3     
  30 C30            5.9943     5.3853    -2.5981 C.3     
  31 C31            7.6425     3.5442    -2.2292 C.3     
  32 H32            0.7075    -0.4000    -1.2060 H       
  33 H33           -1.2708    -1.8530    -1.0301 H       
  34 H34           -3.2654     1.1386     1.2800 H       
  35 H35           -1.2857     2.5905     1.1116 H       
  36 H36            1.8483     1.6258    -0.1624 H       
  37 H37            2.4747     6.9803    -1.2216 H       
  38 H38            3.5934     3.8579    -2.1027 H       
  39 H39            4.7189     3.7343     1.1771 H       
  40 H40           -1.3943    -1.9527     1.6469 H       
  41 H41           -3.0537    -5.6464     2.9904 H       
  42 H42           -5.1154    -5.1854     1.7274 H       
  43 H43            5.8384     4.0224    -0.2425 H       
  44 H44            6.6319     1.7467    -0.6723 H       
  45 H45            4.9857     1.6717     0.0006 H       
  46 H46            5.7384     3.3373    -3.2153 H       
  47 H47            5.2154     0.3039    -1.9441 H       
  48 H48            6.5189     5.6725    -3.5093 H       
  49 H49            4.9357     5.6255    -2.6973 H       
  50 H50            6.4125     5.9294    -1.7512 H       
  51 H51            7.7582     2.4728    -2.0656 H       
  52 H52            8.1672     3.8314    -3.1405 H       
  53 H53            8.0608     4.0883    -1.3824 H       
@<TRIPOS>BOND
   1    1    2 ar
   2    1    7 1
   3    1    6 ar
   4    2    3 ar
   5    2   32 1
   6    3    4 ar
   7    3   33 1
   8    4    5 ar
   9    4   17 1
  10    5    6 ar
  11    5   34 1
  12    6   35 1
  13    7    8 1
  14    7   36 1
  15    8    9 2
  16    8   12 1
  17    9   10 1
  18    9   14 1
  19   10   11 2
  20   10   13 1
  21   11   12 1
  22   13   37 1
  23   14   15 1
  24   14   16 2
  25   15   26 1
  26   15   38 1
  27   16   39 1
  28   17   18 1
  29   18   19 ar
  30   18   22 ar
  31   19   20 ar
  32   19   40 1
  33   20   21 ar
  34   20   24 1
  35   21   23 ar
  36   21   41 1
  37   22   25 1
  38   22   23 ar
  39   23   42 1
  40   26   27 1
  41   26   28 1
  42   26   43 1
  43   27   29 1
  44   27   44 1
  45   27   45 1
  46   28   30 1
  47   28   31 1
  48   28   46 1
  49   29   47 1
  50   30   48 1
  51   30   49 1
  52   30   50 1
  53   31   51 1
  54   31   52 1
  55   31   53 1

#	End of record

