#	Name: ASD01900451
#	Creating user name:	WinNT
#	Creation time:	15. 06. 2019 19:51

#	Modifying user name:	WinNT
#	Modification time:	15. 06. 2019 19:51

#	Program:	/corina/corina34_cracker 3.40 0067  02.08.2006

@<TRIPOS>MOLECULE
ASD01900451
  29   31    0    0    0
SMALL
NO_CHARGES


@<TRIPOS>ATOM
   1 C1            -0.0229     1.3968     0.0604 C.ar    
   2 C2            -0.0078    -0.0093     0.1317 C.ar    
   3 C3             1.2178    -0.6743     0.1244 C.ar    
   4 C4             2.3709     0.0817     0.0469 C.ar    
   5 C5             2.2814     1.4659    -0.0207 C.ar    
   6 N6             1.1186     2.0771    -0.0124 N.ar    
   7 N7            -2.1491     0.6990     0.1677 N.2     
   8 N8            -1.3125    -0.4215     0.1968 N.pl3   
   9 C9            -1.4337     1.7898     0.0933 C.2     
  10 N10           -1.9266     3.0974     0.0450 N.pl3   
  11 C11           -3.3040     3.3226    -0.0404 C.ar    
  12 C12           -3.8077     4.6149     0.0718 C.ar    
  13 C13           -5.1701     4.8329    -0.0138 C.ar    
  14 C14           -6.0310     3.7681    -0.2106 C.ar    
  15 C15           -5.5329     2.4835    -0.3224 C.ar    
  16 C16           -4.1719     2.2583    -0.2432 C.ar    
  17 C17           -6.4754     1.3272    -0.5362 C.3     
  18 F18           -2.9668     5.6546     0.2644 F       
  19 H19            1.2641    -1.7520     0.1782 H       
  20 H20            3.3371    -0.4009     0.0394 H       
  21 H21            3.1865     2.0521    -0.0812 H       
  22 H22           -1.6089    -1.3434     0.2538 H       
  23 H23           -1.3131     3.8483     0.0707 H       
  24 H24           -5.5626     5.8352     0.0735 H       
  25 H25           -7.0951     3.9409    -0.2767 H       
  26 H26           -3.7839     1.2546    -0.3351 H       
  27 H27           -6.6199     1.1691    -1.6050 H       
  28 H28           -6.0534     0.4270    -0.0895 H       
  29 H29           -7.4348     1.5493    -0.0689 H       
@<TRIPOS>BOND
   1    1    2 ar
   2    1    6 ar
   3    1    9 1
   4    2    3 ar
   5    2    8 1
   6    3    4 ar
   7    3   19 1
   8    4    5 ar
   9    4   20 1
  10    5    6 ar
  11    5   21 1
  12    7    8 1
  13    7    9 2
  14    8   22 1
  15    9   10 1
  16   10   11 1
  17   10   23 1
  18   11   12 ar
  19   11   16 ar
  20   12   13 ar
  21   12   18 1
  22   13   14 ar
  23   13   24 1
  24   14   15 ar
  25   14   25 1
  26   15   16 ar
  27   15   17 1
  28   16   26 1
  29   17   27 1
  30   17   28 1
  31   17   29 1

#	End of record

