#	Name: ASD01812042
#	Creating user name:	WinNT
#	Creation time:	15. 06. 2019 19:27

#	Modifying user name:	WinNT
#	Modification time:	15. 06. 2019 19:27

#	Program:	/corina/corina34_cracker 3.40 0067  02.08.2006

@<TRIPOS>MOLECULE
ASD01812042
  48   51    0    0    0
SMALL
NO_CHARGES


@<TRIPOS>ATOM
   1 C1            -0.0168     1.3861     0.0097 C.ar    
   2 C2             0.0021    -0.0041     0.0020 C.ar    
   3 C3             1.1630     2.0982     0.0022 C.ar    
   4 C4             1.1981    -0.6906    -0.0131 C.ar    
   5 C5             2.3830     1.4151    -0.0131 C.ar    
   6 C6             2.4008     0.0094    -0.0209 C.ar    
   7 C7             3.7858     1.8388    -0.0247 C.2     
   8 N8             3.7215    -0.3800    -0.0361 N.pl3   
   9 C9             4.5322     0.7238    -0.0382 C.2     
  10 S10            4.3796     3.4977    -0.0217 S.o2    
  11 C11            4.1897    -1.7682    -0.0478 C.3     
  12 C12            3.8175     4.1826    -1.6045 C.3     
  13 O13            3.6937     4.1135     1.0598 O.2     
  14 O14            5.7942     3.3635    -0.0106 O.2     
  15 C15            4.2187    -2.2766    -1.4661 C.ar    
  16 C16            4.2698     5.6155    -1.7208 C.2     
  17 C17            5.3609    -2.1281    -2.2302 C.ar    
  18 C18            3.1049    -2.8966    -2.0010 C.ar    
  19 O19            4.9084     6.1244    -0.8243 O.2     
  20 N20            3.9646     6.3313    -2.8213 N.am    
  21 C21            5.3881    -2.5943    -3.5315 C.ar    
  22 C22            3.1318    -3.3635    -3.3025 C.ar    
  23 C23            4.3833     7.6576    -2.9289 C.2     
  24 C24            4.2732    -3.2091    -4.0689 C.ar    
  25 Br25           1.6085    -4.2117    -4.0347 Br      
  26 C26            5.1330     8.3952    -1.9745 C.2     
  27 N27            4.1691     8.4692    -3.9310 N.2     
  28 C28            5.2784     9.6131    -2.5444 C.2     
  29 O29            4.6616     9.5557    -3.7337 O.3     
  30 C30            5.9998    10.8003    -1.9604 C.3     
  31 H31            3.4538     5.9242    -3.5384 H       
  32 F32           -1.1624    -0.6890     0.0100 F       
  33 F33            1.1410     3.4490     0.0093 F       
  34 H34           -0.9608     1.9106     0.0170 H       
  35 H35            1.2013    -1.7706    -0.0186 H       
  36 H36            5.6119     0.7004    -0.0497 H       
  37 H37            5.1926    -1.8170     0.3763 H       
  38 H38            3.5140    -2.3845     0.5454 H       
  39 H39            4.2407     3.6005    -2.4231 H       
  40 H40            2.7294     4.1400    -1.6530 H       
  41 H41            6.2323    -1.6473    -1.8106 H       
  42 H42            2.2140    -3.0166    -1.4024 H       
  43 H43            6.2807    -2.4777    -4.1283 H       
  44 H44            4.2947    -3.5736    -5.0853 H       
  45 H45            5.5016     8.0610    -1.0159 H       
  46 H46            7.0465    10.7746    -2.2636 H       
  47 H47            5.5391    11.7195    -2.3224 H       
  48 H48            5.9356    10.7655    -0.8729 H       
@<TRIPOS>BOND
   1    1    2 ar
   2    1    3 ar
   3    1   34 1
   4    2    4 ar
   5    2   32 1
   6    3    5 ar
   7    3   33 1
   8    4    6 ar
   9    4   35 1
  10    5    7 1
  11    5    6 ar
  12    6    8 1
  13    7    9 2
  14    7   10 1
  15    8   11 1
  16    8    9 1
  17    9   36 1
  18   10   12 1
  19   10   13 2
  20   10   14 2
  21   11   15 1
  22   11   37 1
  23   11   38 1
  24   12   16 1
  25   12   39 1
  26   12   40 1
  27   15   17 ar
  28   15   18 ar
  29   16   19 2
  30   16   20 am
  31   17   21 ar
  32   17   41 1
  33   18   22 ar
  34   18   42 1
  35   20   31 1
  36   20   23 1
  37   21   24 ar
  38   21   43 1
  39   22   24 ar
  40   22   25 1
  41   23   26 1
  42   23   27 2
  43   24   44 1
  44   26   28 2
  45   26   45 1
  46   27   29 1
  47   28   30 1
  48   28   29 1
  49   30   46 1
  50   30   47 1
  51   30   48 1

#	End of record

