#	Name: ASD01200382
#	Creating user name:	WinNT
#	Creation time:	15. 06. 2019 19:09

#	Modifying user name:	WinNT
#	Modification time:	15. 06. 2019 19:09

#	Program:	/corina/corina34_cracker 3.40 0067  02.08.2006

@<TRIPOS>MOLECULE
ASD01200382
  74   76    0    0    0
SMALL
NO_CHARGES


@<TRIPOS>ATOM
   1 N1            -0.0178     1.4608     0.0101 N.pl3   
   2 C2             0.0242     0.0158     0.2478 C.3     
   3 C3            -0.9851    -0.3513     1.3375 C.3     
   4 P4            -0.3962    -0.8657    -1.2916 P.3     
   5 C5             1.1730     2.1777    -0.1556 C.ar    
   6 O6            -0.2229    -2.4505    -1.0670 O.3     
   7 O7            -1.7983    -0.5704    -1.6621 O.2     
   8 O8             0.5845    -0.3807    -2.4727 O.3     
   9 C9             0.4420    -0.8099    -3.8282 C.3     
  10 C10            1.5322    -0.1636    -4.6852 C.3     
  11 C11           -0.5761    -3.4199    -2.0556 C.3     
  12 C12           -0.2854    -4.8235    -1.5204 C.3     
  13 C13            2.3813     1.5067    -0.2228 C.ar    
  14 C14            3.5670     2.2258    -0.3887 C.ar    
  15 C15            3.5280     3.6185    -0.4860 C.ar    
  16 C16            2.3206     4.2816    -0.4184 C.ar    
  17 C17            1.1417     3.5685    -0.2590 C.ar    
  18 N18           -2.3311     0.0338     0.9063 N.pl3   
  19 O19           -0.0455     4.2268    -0.1928 O.3     
  20 C20            4.8594     1.5151    -0.4605 C.2     
  21 N21            6.0184     2.0935    -0.6136 N.2     
  22 C22            7.0713     1.3224    -0.6581 C.2     
  23 C23            6.7907    -0.0126    -0.5340 C.2     
  24 S24            5.0467    -0.1801    -0.3474 S.3     
  25 C25            7.7655    -1.1039    -0.5477 C.2     
  26 C26            8.4707     1.8540    -0.8316 C.3     
  27 O27            7.3505    -2.3807    -0.4149 O.3     
  28 O28            8.9499    -0.8598    -0.6788 O.2     
  29 C29            8.3565    -3.3954    -0.4372 C.3     
  30 C30            7.7002    -4.7679    -0.2744 C.3     
  31 C31           -3.4286    -0.2034     1.7423 C.ar    
  32 C32           -4.7138     0.1541     1.3385 C.ar    
  33 C33           -3.2517    -0.8024     2.9805 C.ar    
  34 C34           -5.7682    -0.0993     2.1975 C.ar    
  35 C35           -5.5134    -0.6973     3.4248 C.ar    
  36 N36           -4.2821    -1.0291     3.7732 N.ar    
  37 C37           -4.9492     0.8019    -0.0016 C.3     
  38 O38           -6.5419    -0.9495     4.2746 O.3     
  39 C39           -6.2166    -1.5661     5.5220 C.3     
  40 H40           -0.8709     1.9201    -0.0364 H       
  41 H41            1.0257    -0.2707     0.5686 H       
  42 H42           -0.9538    -1.4264     1.5144 H       
  43 H43           -0.7337     0.1757     2.2579 H       
  44 H44            0.5364    -1.8947    -3.8777 H       
  45 H45           -0.5379    -0.5131    -4.2023 H       
  46 H46            2.5121    -0.4604    -4.3112 H       
  47 H47            1.4235    -0.4910    -5.7192 H       
  48 H48            1.4378     0.9212    -4.6358 H       
  49 H49           -1.6375    -3.3321    -2.2877 H       
  50 H50            0.0088    -3.2473    -2.9591 H       
  51 H51           -0.8703    -4.9961    -0.6170 H       
  52 H52           -0.5549    -5.5629    -2.2745 H       
  53 H53            0.7760    -4.9113    -1.2884 H       
  54 H54            2.4075     0.4297    -0.1468 H       
  55 H55            4.4438     4.1765    -0.6139 H       
  56 H56            2.2927     5.3586    -0.4935 H       
  57 H57           -2.4620     0.4531     0.0415 H       
  58 H58           -0.4713     4.3572    -1.0512 H       
  59 H59            8.9063     2.0567     0.1468 H       
  60 H60            9.0781     1.1147    -1.3536 H       
  61 H61            8.4400     2.7752    -1.4134 H       
  62 H62            8.8894    -3.3580    -1.3873 H       
  63 H63            9.0585    -3.2291     0.3799 H       
  64 H64            8.4675    -5.5419    -0.2914 H       
  65 H65            7.1673    -4.8054     0.6758 H       
  66 H66            6.9982    -4.9342    -1.0915 H       
  67 H67           -2.2599    -1.0867     3.2994 H       
  68 H68           -6.7772     0.1649     1.9172 H       
  69 H69           -5.1299     0.0312    -0.7510 H       
  70 H70           -5.8164     1.4593     0.0598 H       
  71 H71           -4.0715     1.3836    -0.2831 H       
  72 H72           -7.1268    -1.7112     6.1039 H       
  73 H73           -5.7453    -2.5316     5.3380 H       
  74 H74           -5.5296    -0.9260     6.0755 H       
@<TRIPOS>BOND
   1    1    2 1
   2    1    5 1
   3    1   40 1
   4    2    3 1
   5    2    4 1
   6    2   41 1
   7    3   18 1
   8    3   42 1
   9    3   43 1
  10    4    6 1
  11    4    7 2
  12    4    8 1
  13    5   13 ar
  14    5   17 ar
  15    6   11 1
  16    8    9 1
  17    9   10 1
  18    9   44 1
  19    9   45 1
  20   10   46 1
  21   10   47 1
  22   10   48 1
  23   11   12 1
  24   11   49 1
  25   11   50 1
  26   12   51 1
  27   12   52 1
  28   12   53 1
  29   13   14 ar
  30   13   54 1
  31   14   15 ar
  32   14   20 1
  33   15   16 ar
  34   15   55 1
  35   16   17 ar
  36   16   56 1
  37   17   19 1
  38   18   31 1
  39   18   57 1
  40   19   58 1
  41   20   21 2
  42   20   24 1
  43   21   22 1
  44   22   23 2
  45   22   26 1
  46   23   24 1
  47   23   25 1
  48   25   27 1
  49   25   28 2
  50   26   59 1
  51   26   60 1
  52   26   61 1
  53   27   29 1
  54   29   30 1
  55   29   62 1
  56   29   63 1
  57   30   64 1
  58   30   65 1
  59   30   66 1
  60   31   33 ar
  61   31   32 ar
  62   32   34 ar
  63   32   37 1
  64   33   36 ar
  65   33   67 1
  66   34   35 ar
  67   34   68 1
  68   35   36 ar
  69   35   38 1
  70   37   69 1
  71   37   70 1
  72   37   71 1
  73   38   39 1
  74   39   72 1
  75   39   73 1
  76   39   74 1

#	End of record

