#	Name: ASD04880309
#	Creating user name:	WinNT
#	Creation time:	15. 06. 2019 20:53

#	Modifying user name:	WinNT
#	Modification time:	15. 06. 2019 20:53

#	Program:	/corina/corina34_cracker 3.40 0067  02.08.2006

@<TRIPOS>MOLECULE
ASD04880309
  52   55    0    0    0
SMALL
NO_CHARGES


@<TRIPOS>ATOM
   1 C1            -0.0120     1.3679    -0.2644 C.ar    
   2 C2             0.0109    -0.0187    -0.3035 C.ar    
   3 C3             1.2264    -0.6994    -0.2920 C.ar    
   4 C4             2.4137     0.0066    -0.2415 C.ar    
   5 C5             2.3911     1.4031    -0.2021 C.ar    
   6 C6             1.1683     2.0792    -0.2139 C.ar    
   7 C7             3.6541     2.1614    -0.1477 C.2     
   8 N8             4.8332     1.6418    -0.1325 N.2     
   9 N9             5.8660     2.5757    -0.0794 N.am    
  10 C10            5.2846     3.9273    -0.0555 C.3     
  11 C11            3.7658     3.6687    -0.1077 C.3     
  12 C12            7.1824     2.2880    -0.0536 C.2     
  13 C13            7.6300     0.8829     0.0461 C.ar    
  14 O14            8.0019     3.1844    -0.1123 O.2     
  15 C15            6.7000    -0.1329     0.2588 C.ar    
  16 C16            7.1306    -1.4550     0.3515 C.ar    
  17 C17            8.4906    -1.7535     0.2308 C.ar    
  18 C18            9.4064    -0.7420     0.0206 C.ar    
  19 C19            8.9856     0.5695    -0.0785 C.ar    
  20 C20            6.1820    -2.5051     0.5705 C.1     
  21 N21            5.4295    -3.3382     0.7442 N.1     
  22 C22            3.1658     4.2763    -1.3495 C.ar    
  23 C23            2.1256     5.1806    -1.2430 C.ar    
  24 C24            1.5753     5.7385    -2.3816 C.ar    
  25 C25            2.0656     5.3919    -3.6277 C.ar    
  26 C26            3.1064     4.4870    -3.7338 C.ar    
  27 C27            3.6596     3.9336    -2.5944 C.ar    
  28 Br28           1.3127     6.1543    -5.1858 Br      
  29 O29           -1.1556    -0.7149    -0.3527 O.3     
  30 O30            1.2447    -2.0587    -0.3299 O.3     
  31 C31           -2.3653     0.0459    -0.3614 C.3     
  32 C32            2.5262    -2.6909    -0.3153 C.3     
  33 H33           -0.9564     1.8917    -0.2781 H       
  34 H34            3.3566    -0.5200    -0.2321 H       
  35 H35            1.1475     3.1585    -0.1839 H       
  36 H36            5.5575     4.4461     0.8634 H       
  37 H37            5.6033     4.4974    -0.9282 H       
  38 H38            3.2816     4.0644     0.7851 H       
  39 H39            5.6502     0.1035     0.3517 H       
  40 H40            8.8259    -2.7776     0.3024 H       
  41 H41           10.4562    -0.9781    -0.0713 H       
  42 H42            9.7068     1.3554    -0.2479 H       
  43 H43            1.7427     5.4509    -0.2700 H       
  44 H44            0.7625     6.4447    -2.2983 H       
  45 H45            3.4893     4.2157    -4.7065 H       
  46 H46            4.4750     3.2302    -2.6769 H       
  47 H47           -2.4219     0.6486     0.5451 H       
  48 H48           -2.3772     0.6994    -1.2336 H       
  49 H49           -3.2193    -0.6302    -0.4022 H       
  50 H50            2.3980    -3.7728    -0.3492 H       
  51 H51            3.1015    -2.3659    -1.1822 H       
  52 H52            3.0565    -2.4162     0.5965 H       
@<TRIPOS>BOND
   1    1    2 ar
   2    1    6 ar
   3    1   33 1
   4    2    3 ar
   5    2   29 1
   6    3    4 ar
   7    3   30 1
   8    4    5 ar
   9    4   34 1
  10    5    6 ar
  11    5    7 1
  12    6   35 1
  13    7    8 2
  14    7   11 1
  15    8    9 1
  16    9   10 1
  17    9   12 am
  18   10   11 1
  19   10   36 1
  20   10   37 1
  21   11   22 1
  22   11   38 1
  23   12   13 1
  24   12   14 2
  25   13   15 ar
  26   13   19 ar
  27   15   16 ar
  28   15   39 1
  29   16   17 ar
  30   16   20 1
  31   17   18 ar
  32   17   40 1
  33   18   19 ar
  34   18   41 1
  35   19   42 1
  36   20   21 3
  37   22   23 ar
  38   22   27 ar
  39   23   24 ar
  40   23   43 1
  41   24   25 ar
  42   24   44 1
  43   25   26 ar
  44   25   28 1
  45   26   27 ar
  46   26   45 1
  47   27   46 1
  48   29   31 1
  49   30   32 1
  50   31   47 1
  51   31   48 1
  52   31   49 1
  53   32   50 1
  54   32   51 1
  55   32   52 1

#	End of record

