#	Name: ASD01810134
#	Creating user name:	WinNT
#	Creation time:	15. 06. 2019 19:23

#	Modifying user name:	WinNT
#	Modification time:	15. 06. 2019 19:23

#	Program:	/corina/corina34_cracker 3.40 0067  02.08.2006

@<TRIPOS>MOLECULE
ASD01810134
  37   39    0    0    0
SMALL
NO_CHARGES


@<TRIPOS>ATOM
   1 C1            -0.0157     1.3838    -0.1172 C.ar    
   2 C2             0.0031    -0.0034    -0.1236 C.ar    
   3 C3             1.1984    -0.6917    -0.0968 C.ar    
   4 C4             2.4039     0.0085    -0.0630 C.ar    
   5 C5             2.3800     1.4131    -0.0567 C.ar    
   6 C6             1.1634     2.0949    -0.0839 C.ar    
   7 N7             3.6056    -0.6668    -0.0350 N.pl3   
   8 C8             4.7887    -0.0411    -0.0007 C.2     
   9 C9             4.8928     1.3355     0.0092 C.2     
  10 C10            3.6619     2.1417    -0.0208 C.2     
  11 O11            3.7002     3.3596    -0.0138 O.2     
  12 C12            6.2107     1.9849     0.0482 C.2     
  13 O13            6.2992     3.3300     0.0576 O.3     
  14 O14            7.2209     1.3091     0.0721 O.2     
  15 C15            3.5871    -2.1316    -0.0427 C.3     
  16 F16            1.2010    -2.0427    -0.1030 F       
  17 C17            3.4424    -2.6323    -1.4812 C.3     
  18 C18            3.4233    -4.1392    -1.4891 C.ar    
  19 C19            2.2230    -4.8158    -1.3778 C.ar    
  20 C20            2.2055    -6.1980    -1.3850 C.ar    
  21 C21            3.3883    -6.9036    -1.5039 C.ar    
  22 C22            4.5885    -6.2270    -1.6160 C.ar    
  23 C23            4.6056    -4.8447    -1.6132 C.ar    
  24 H24           -0.9593     1.9086    -0.1429 H       
  25 H25           -0.9279    -0.5503    -0.1494 H       
  26 H26            1.1461     3.1748    -0.0794 H       
  27 H27            5.6918    -0.6330     0.0203 H       
  28 H28            7.1875     3.7113     0.0836 H       
  29 H29            4.5175    -2.5090     0.3815 H       
  30 H30            2.7459    -2.4875     0.5522 H       
  31 H31            2.5119    -2.2549    -1.9054 H       
  32 H32            4.2835    -2.2765    -2.0761 H       
  33 H33            1.2990    -4.2645    -1.2850 H       
  34 H34            1.2679    -6.7267    -1.2974 H       
  35 H35            3.3747    -7.9835    -1.5088 H       
  36 H36            5.5126    -6.7782    -1.7085 H       
  37 H37            5.5432    -4.3160    -1.7008 H       
@<TRIPOS>BOND
   1    1    2 ar
   2    1    6 ar
   3    1   24 1
   4    2    3 ar
   5    2   25 1
   6    3    4 ar
   7    3   16 1
   8    4    5 ar
   9    4    7 1
  10    5    6 ar
  11    5   10 1
  12    6   26 1
  13    7    8 1
  14    7   15 1
  15    8    9 2
  16    8   27 1
  17    9   10 1
  18    9   12 1
  19   10   11 2
  20   12   13 1
  21   12   14 2
  22   13   28 1
  23   15   17 1
  24   15   29 1
  25   15   30 1
  26   17   18 1
  27   17   31 1
  28   17   32 1
  29   18   19 ar
  30   18   23 ar
  31   19   20 ar
  32   19   33 1
  33   20   21 ar
  34   20   34 1
  35   21   22 ar
  36   21   35 1
  37   22   23 ar
  38   22   36 1
  39   23   37 1

#	End of record

