#	Name: ASD01850091
#	Creating user name:	WinNT
#	Creation time:	15. 06. 2019 19:38

#	Modifying user name:	WinNT
#	Modification time:	15. 06. 2019 19:38

#	Program:	/corina/corina34_cracker 3.40 0067  02.08.2006

@<TRIPOS>MOLECULE
ASD01850091
  49   53    0    0    0
SMALL
NO_CHARGES


@<TRIPOS>ATOM
   1 C1             0.1480     1.0700    -0.1537 C.ar    
   2 C2             0.3400    -0.2951    -0.0375 C.ar    
   3 C3             1.6110    -0.8069     0.1259 C.ar    
   4 C4             2.7065     0.0544     0.1740 C.ar    
   5 C5             2.5003     1.4360     0.0737 C.ar    
   6 C6             1.2294     1.9332    -0.0980 C.ar    
   7 C7             4.1586    -0.1872     0.3130 C.2     
   8 N8             4.8249     0.9544     0.1452 N.am    
   9 C9             3.8527     2.0700     0.2179 C.3     
  10 C10            6.0895     1.6477    -0.1633 C.3     
  11 C11            5.6436     2.7487    -1.1571 C.3     
  12 N12            4.2000     2.9497    -0.9035 N.am    
  13 C13            3.3694     3.7755    -1.5703 C.2     
  14 C14            3.9061     4.6925    -2.5949 C.ar    
  15 C15            3.0715     5.6401    -3.1932 C.ar    
  16 C16            3.5761     6.4940    -4.1483 C.ar    
  17 C17            4.9137     6.4140    -4.5178 C.ar    
  18 C18            5.7471     5.4725    -3.9254 C.ar    
  19 C19            5.2515     4.6191    -2.9649 C.ar    
  20 O20            2.1780     3.7652    -1.3278 O.2     
  21 C21            3.9650     2.7927     1.5355 C.ar    
  22 C22            3.6659     4.1401     1.6122 C.ar    
  23 C23            3.7687     4.8035     2.8204 C.ar    
  24 C24            4.1712     4.1187     3.9532 C.ar    
  25 C25            4.4705     2.7702     3.8758 C.ar    
  26 C26            4.3618     2.1066     2.6682 C.ar    
  27 O27            4.6683    -1.2659     0.5457 O.2     
  28 Cl28           4.3012     4.9514     5.4709 Cl      
  29 O29            5.4071     7.2571    -5.4599 O.3     
  30 C30            6.7902     7.1205    -5.7922 C.3     
  31 H31           -0.8481     1.4635    -0.2928 H       
  32 H32           -0.5081    -0.9627    -0.0745 H       
  33 H33            1.7570    -1.8732     0.2167 H       
  34 H34            1.0747     2.9981    -0.1902 H       
  35 H35            6.5169     2.0900     0.7366 H       
  36 H36            6.7984     0.9666    -0.6342 H       
  37 H37            6.1918     3.6717    -0.9681 H       
  38 H38            5.8037     2.4177    -2.1832 H       
  39 H39            2.0319     5.7024    -2.9072 H       
  40 H40            2.9317     7.2267    -4.6112 H       
  41 H41            6.7856     5.4129    -4.2157 H       
  42 H42            5.8997     3.8877    -2.5051 H       
  43 H43            3.3520     4.6747     0.7278 H       
  44 H44            3.5353     5.8563     2.8801 H       
  45 H45            4.7847     2.2351     4.7598 H       
  46 H46            4.5954     1.0539     2.6077 H       
  47 H47            7.3962     7.2890    -4.9020 H       
  48 H48            6.9750     6.1158    -6.1726 H       
  49 H49            7.0545     7.8523    -6.5556 H       
@<TRIPOS>BOND
   1    1    2 ar
   2    1    6 ar
   3    1   31 1
   4    2    3 ar
   5    2   32 1
   6    3    4 ar
   7    3   33 1
   8    4    5 ar
   9    4    7 1
  10    5    6 ar
  11    5    9 1
  12    6   34 1
  13    7    8 am
  14    7   27 2
  15    8    9 1
  16    8   10 1
  17    9   21 1
  18    9   12 1
  19   10   11 1
  20   10   35 1
  21   10   36 1
  22   11   12 1
  23   11   37 1
  24   11   38 1
  25   12   13 am
  26   13   14 1
  27   13   20 2
  28   14   15 ar
  29   14   19 ar
  30   15   16 ar
  31   15   39 1
  32   16   17 ar
  33   16   40 1
  34   17   18 ar
  35   17   29 1
  36   18   19 ar
  37   18   41 1
  38   19   42 1
  39   21   22 ar
  40   21   26 ar
  41   22   23 ar
  42   22   43 1
  43   23   24 ar
  44   23   44 1
  45   24   25 ar
  46   24   28 1
  47   25   26 ar
  48   25   45 1
  49   26   46 1
  50   29   30 1
  51   30   47 1
  52   30   48 1
  53   30   49 1

#	End of record

