#	Name: ASD01917884
#	Creating user name:	WinNT
#	Creation time:	15. 06. 2019 20:10

#	Modifying user name:	WinNT
#	Modification time:	15. 06. 2019 20:10

#	Program:	/corina/corina34_cracker 3.40 0067  02.08.2006

@<TRIPOS>MOLECULE
ASD01917884
  44   47    0    0    0
SMALL
NO_CHARGES


@<TRIPOS>ATOM
   1 C1            -0.0149     1.3202    -0.0013 C.2     
   2 C2            -0.0104    -0.0260     0.0074 C.2     
   3 C3            -1.2835    -0.8580     0.0239 C.3     
   4 C4            -2.4465     0.0146     0.5018 C.3     
   5 N5            -2.4115     1.2983    -0.2151 N.am    
   6 C6            -1.2560     2.1827     0.0159 C.3     
   7 C7            -3.4039     1.6536    -1.0549 C.2     
   8 O8            -4.2927     0.8655    -1.3136 O.2     
   9 S9             1.6484     1.8887    -0.0281 S.3     
  10 C10            2.2082     0.2737    -0.0206 C.2     
  11 N11            1.2119    -0.5401    -0.0014 N.2     
  12 C12            3.6580    -0.1371    -0.0349 C.3     
  13 O13            4.0997    -0.2785    -1.3866 O.3     
  14 C14            5.3938    -0.6474    -1.5774 C.ar    
  15 C15            6.2203    -0.8684    -0.4844 C.ar    
  16 C16            7.5389    -1.2437    -0.6724 C.ar    
  17 C17            8.0406    -1.4012    -1.9488 C.ar    
  18 C18            7.2160    -1.1814    -3.0541 C.ar    
  19 C19            5.8852    -0.8080    -2.8621 C.ar    
  20 C20           -3.4117     3.0008    -1.6611 C.ar    
  21 C21           -2.9451     4.0986    -0.9349 C.ar    
  22 C22           -2.9547     5.3534    -1.5053 C.ar    
  23 C23           -3.4263     5.5267    -2.7976 C.ar    
  24 C24           -3.8911     4.4401    -3.5229 C.ar    
  25 C25           -3.8803     3.1800    -2.9644 C.ar    
  26 F26           -3.4334     6.7587    -3.3520 F       
  27 Br27           8.6568    -1.5411     0.8235 Br      
  28 C28            7.7328    -1.3433    -4.3798 C.1     
  29 N29            8.1428    -1.4717    -5.4314 N.1     
  30 H30           -1.4921    -1.2247    -0.9811 H       
  31 H31           -1.1585    -1.7020     0.7023 H       
  32 H32           -3.3899    -0.4915     0.2971 H       
  33 H33           -2.3523     0.1928     1.5730 H       
  34 H34           -1.3536     2.6745     0.9837 H       
  35 H35           -1.1973     2.9297    -0.7758 H       
  36 H36            4.2564     0.6244     0.4651 H       
  37 H37            3.7713    -1.0880     0.4857 H       
  38 H38            5.8330    -0.7466     0.5163 H       
  39 H39            9.0703    -1.6939    -2.0924 H       
  40 H40            5.2426    -0.6366    -3.7131 H       
  41 H41           -2.5779     3.9648     0.0718 H       
  42 H42           -2.5944     6.2031    -0.9445 H       
  43 H43           -4.2577     4.5807    -4.5290 H       
  44 H44           -4.2422     2.3343    -3.5303 H       
@<TRIPOS>BOND
   1    1    2 2
   2    1    9 1
   3    1    6 1
   4    2    3 1
   5    2   11 1
   6    3    4 1
   7    3   30 1
   8    3   31 1
   9    4    5 1
  10    4   32 1
  11    4   33 1
  12    5    6 1
  13    5    7 am
  14    6   34 1
  15    6   35 1
  16    7    8 2
  17    7   20 1
  18    9   10 1
  19   10   11 2
  20   10   12 1
  21   12   13 1
  22   12   36 1
  23   12   37 1
  24   13   14 1
  25   14   15 ar
  26   14   19 ar
  27   15   16 ar
  28   15   38 1
  29   16   17 ar
  30   16   27 1
  31   17   18 ar
  32   17   39 1
  33   18   28 1
  34   18   19 ar
  35   19   40 1
  36   20   21 ar
  37   20   25 ar
  38   21   22 ar
  39   21   41 1
  40   22   23 ar
  41   22   42 1
  42   23   24 ar
  43   23   26 1
  44   24   25 ar
  45   24   43 1
  46   25   44 1
  47   28   29 3

#	End of record

