#	Name: ASD01918183
#	Creating user name:	WinNT
#	Creation time:	15. 06. 2019 20:10

#	Modifying user name:	WinNT
#	Modification time:	15. 06. 2019 20:10

#	Program:	/corina/corina34_cracker 3.40 0067  02.08.2006

@<TRIPOS>MOLECULE
ASD01918183
  53   56    0    0    0
SMALL
NO_CHARGES


@<TRIPOS>ATOM
   1 N1            -0.8936     1.4533    -1.7851 N.ar    
   2 C2            -0.9579     0.1535    -1.9841 C.ar    
   3 C3             0.0819    -0.6767    -1.6034 C.ar    
   4 C4             1.2074    -0.1286    -1.0040 C.ar    
   5 C5             1.2506     1.2401    -0.8064 C.ar    
   6 C6             0.1652     2.0188    -1.2147 C.ar    
   7 N7             0.1922     3.3729    -1.0262 N.2     
   8 N8            -0.8076     4.0965    -1.4015 N.2     
   9 C9            -0.7806     5.4467    -1.2134 C.ar    
  10 C10           -1.8348     7.5992    -1.4216 C.ar    
  11 C11           -1.8668     6.2324    -1.6147 C.ar    
  12 C12            0.3311     6.0491    -0.6135 C.ar    
  13 C13            0.3564     7.4127    -0.4235 C.ar    
  14 C14           -0.7208     8.1941    -0.8265 C.ar    
  15 O15           -2.8883     8.3657    -1.8108 O.3     
  16 C16           -3.9947     7.6904    -2.4124 C.3     
  17 N17           -0.6898     9.5761    -0.6324 N.am    
  18 C18            0.4875    10.2321    -0.6449 C.2     
  19 C19            0.5131    11.7081    -0.5427 C.ar    
  20 O20            1.5281     9.6113    -0.7400 O.2     
  21 C21           -0.6584    13.7948    -0.3325 C.ar    
  22 C22           -0.6819    12.4206    -0.4277 C.ar    
  23 C23            1.7326    12.3875    -0.5556 C.ar    
  24 C24            1.7569    13.7617    -0.4604 C.ar    
  25 C25            0.5612    14.4751    -0.3511 C.ar    
  26 C26            0.5868    15.9506    -0.2495 C.2     
  27 O27           -0.3689    16.5447     0.2094 O.2     
  28 C28            1.7740    16.7018    -0.7057 C.ar    
  29 C29            2.6167    16.1591    -1.6788 C.ar    
  30 C30            2.0562    17.9609    -0.1701 C.ar    
  31 C31            3.1665    18.6567    -0.6007 C.ar    
  32 C32            4.0000    18.1104    -1.5610 C.ar    
  33 C33            3.7234    16.8661    -2.1000 C.ar    
  34 H34           -1.8346    -0.2710    -2.4507 H       
  35 H35            0.0179    -1.7417    -1.7709 H       
  36 H36            2.0310    -0.7567    -0.6982 H       
  37 H37            2.1108     1.6998    -0.3426 H       
  38 H38           -2.7281     5.7708    -2.0746 H       
  39 H39            1.1690     5.4445    -0.2992 H       
  40 H40            1.2147     7.8763     0.0400 H       
  41 H41           -3.6597     7.1744    -3.3122 H       
  42 H42           -4.4040     6.9653    -1.7089 H       
  43 H43           -4.7642     8.4162    -2.6750 H       
  44 H44           -1.5156    10.0643    -0.4887 H       
  45 H45           -1.5830    14.3459    -0.2439 H       
  46 H46           -1.6250    11.8944    -0.4137 H       
  47 H47            2.6572    11.8357    -0.6397 H       
  48 H48            2.7004    14.2871    -0.4700 H       
  49 H49            2.4022    15.1880    -2.1001 H       
  50 H50            1.4064    18.3886     0.5790 H       
  51 H51            3.3857    19.6303    -0.1879 H       
  52 H52            4.8679    18.6598    -1.8948 H       
  53 H53            4.3757    16.4477    -2.8523 H       
@<TRIPOS>BOND
   1    1    2 ar
   2    1    6 ar
   3    2    3 ar
   4    2   34 1
   5    3    4 ar
   6    3   35 1
   7    4    5 ar
   8    4   36 1
   9    5    6 ar
  10    5   37 1
  11    6    7 1
  12    7    8 2
  13    8    9 1
  14    9   12 ar
  15    9   11 ar
  16   10   11 ar
  17   10   14 ar
  18   10   15 1
  19   11   38 1
  20   12   13 ar
  21   12   39 1
  22   13   14 ar
  23   13   40 1
  24   14   17 1
  25   15   16 1
  26   16   41 1
  27   16   42 1
  28   16   43 1
  29   17   18 am
  30   17   44 1
  31   18   19 1
  32   18   20 2
  33   19   23 ar
  34   19   22 ar
  35   21   22 ar
  36   21   25 ar
  37   21   45 1
  38   22   46 1
  39   23   24 ar
  40   23   47 1
  41   24   25 ar
  42   24   48 1
  43   25   26 1
  44   26   27 2
  45   26   28 1
  46   28   30 ar
  47   28   29 ar
  48   29   33 ar
  49   29   49 1
  50   30   31 ar
  51   30   50 1
  52   31   32 ar
  53   31   51 1
  54   32   33 ar
  55   32   52 1
  56   33   53 1

#	End of record

