#	Name: ASD03330163
#	Creating user name:	WinNT
#	Creation time:	15. 06. 2019 20:36

#	Modifying user name:	WinNT
#	Modification time:	15. 06. 2019 20:36

#	Program:	/corina/corina34_cracker 3.40 0067  02.08.2006

@<TRIPOS>MOLECULE
ASD03330163
  32   33    0    0    0
SMALL
NO_CHARGES


@<TRIPOS>ATOM
   1 C1             0.0433     1.3352     0.5517 C.2     
   2 C2             0.0187    -0.0247     0.1529 C.2     
   3 C3            -1.1755    -0.7093     0.1134 C.2     
   4 O4             1.0796     1.9654     0.4967 O.2     
   5 C5             1.2782    -0.7098    -0.2217 C.ar    
   6 C6             1.9908    -0.2964    -1.3471 C.ar    
   7 C7             3.1627    -0.9359    -1.6925 C.ar    
   8 C8             3.6334    -1.9901    -0.9214 C.ar    
   9 C9             2.9267    -2.4042     0.1996 C.ar    
  10 C10            1.7568    -1.7658     0.5537 C.ar    
  11 O11            4.7884    -2.6184    -1.2649 O.3     
  12 C12            5.2151    -3.6950    -0.4276 C.3     
  13 C13           -2.4378     0.0023     0.3503 C.ar    
  14 C14           -3.2929    -0.4040     1.3838 C.ar    
  15 C15           -4.4769     0.2713     1.5990 C.ar    
  16 C16           -4.8200     1.3463     0.7979 C.ar    
  17 C17           -3.9807     1.7538    -0.2250 C.ar    
  18 C18           -2.7916     1.0944    -0.4510 C.ar    
  19 Cl19          -2.8642    -1.7527     2.3892 Cl      
  20 Cl20          -1.1886    -2.4136    -0.2164 Cl      
  21 H21           -0.8609     1.8121     0.9004 H       
  22 H22            1.6250     0.5233    -1.9476 H       
  23 H23            3.7148    -0.6165    -2.5641 H       
  24 H24            3.2957    -3.2246     0.7972 H       
  25 H25            1.2098    -2.0855     1.4283 H       
  26 H26            5.3723    -3.3266     0.5861 H       
  27 H27            4.4508    -4.4721    -0.4174 H       
  28 H28            6.1475    -4.1075    -0.8131 H       
  29 H29           -5.1376    -0.0402     2.3945 H       
  30 H30           -5.7483     1.8703     0.9715 H       
  31 H31           -4.2566     2.5938    -0.8452 H       
  32 H32           -2.1364     1.4169    -1.2467 H       
@<TRIPOS>BOND
   1    1    2 1
   2    1    4 2
   3    1   21 1
   4    2    3 2
   5    2    5 1
   6    3   13 1
   7    3   20 1
   8    5    6 ar
   9    5   10 ar
  10    6    7 ar
  11    6   22 1
  12    7    8 ar
  13    7   23 1
  14    8    9 ar
  15    8   11 1
  16    9   10 ar
  17    9   24 1
  18   10   25 1
  19   11   12 1
  20   12   26 1
  21   12   27 1
  22   12   28 1
  23   13   14 ar
  24   13   18 ar
  25   14   15 ar
  26   14   19 1
  27   15   16 ar
  28   15   29 1
  29   16   17 ar
  30   16   30 1
  31   17   18 ar
  32   17   31 1
  33   18   32 1

#	End of record

