#	Name: ASD09120012
#	Creating user name:	WinNT
#	Creation time:	15. 06. 2019 21:21

#	Modifying user name:	WinNT
#	Modification time:	15. 06. 2019 21:21

#	Program:	/corina/corina34_cracker 3.40 0067  02.08.2006

@<TRIPOS>MOLECULE
ASD09120012
  38   40    0    0    0
SMALL
NO_CHARGES


@<TRIPOS>ATOM
   1 C1            -0.0304     1.3762    -0.0507 C.ar    
   2 C2            -0.0243    -0.0030    -0.0700 C.ar    
   3 C3             0.8919    -0.7055     0.6928 C.ar    
   4 C4             1.8079    -0.0314     1.4800 C.ar    
   5 C5             1.8135     1.3493     1.5093 C.ar    
   6 C6             0.8910     2.0644     0.7407 C.ar    
   7 N7            -1.0009    -0.7337    -0.9088 N.pl3   
   8 O8            -1.8083    -0.1171    -1.5806 O.2     
   9 O9            -0.9970    -1.9515    -0.9272 O.2     
  10 C10            0.8905     3.5415     0.7660 C.2     
  11 O11            1.6942     4.1379     1.4562 O.2     
  12 N12           -0.0009     4.2279     0.0238 N.am    
  13 C13           -0.0665     5.6204     0.1217 C.ar    
  14 Cl14           2.9629     2.1943     2.4985 Cl      
  15 C15            1.0335     7.7320     0.4088 C.ar    
  16 C16            1.0960     6.3582     0.3120 C.ar    
  17 C17           -1.2935     6.2659     0.0228 C.ar    
  18 C18           -1.3605     7.6395     0.1186 C.ar    
  19 C19           -0.1966     8.3812     0.3147 C.ar    
  20 C20           -0.2663     9.8593     0.4191 C.ar    
  21 C21           -1.4952    10.5098     0.3253 C.ar    
  22 C22           -1.5542    11.8852     0.4230 C.ar    
  23 C23           -0.3965    12.6179     0.6138 C.ar    
  24 C24            0.8260    11.9774     0.7076 C.ar    
  25 C25            0.8961    10.6021     0.6170 C.ar    
  26 H26           -0.7437     1.9226    -0.6499 H       
  27 H27            0.8915    -1.7853     0.6737 H       
  28 H28            2.5200    -0.5859     2.0732 H       
  29 H29           -0.5968     3.7554    -0.5782 H       
  30 H30            1.9369     8.3049     0.5574 H       
  31 H31            2.0488     5.8549     0.3844 H       
  32 H32           -2.1950     5.6910    -0.1296 H       
  33 H33           -2.3141     8.1407     0.0413 H       
  34 H34           -2.3997     9.9388     0.1760 H       
  35 H35           -2.5059    12.3904     0.3501 H       
  36 H36           -0.4472    13.6940     0.6893 H       
  37 H37            1.7268    12.5545     0.8561 H       
  38 H38            1.8506    10.1027     0.6949 H       
@<TRIPOS>BOND
   1    1    2 ar
   2    1    6 ar
   3    1   26 1
   4    2    3 ar
   5    2    7 1
   6    3    4 ar
   7    3   27 1
   8    4    5 ar
   9    4   28 1
  10    5    6 ar
  11    5   14 1
  12    6   10 1
  13    7    8 2
  14    7    9 2
  15   10   11 2
  16   10   12 am
  17   12   13 1
  18   12   29 1
  19   13   17 ar
  20   13   16 ar
  21   15   16 ar
  22   15   19 ar
  23   15   30 1
  24   16   31 1
  25   17   18 ar
  26   17   32 1
  27   18   19 ar
  28   18   33 1
  29   19   20 1
  30   20   21 ar
  31   20   25 ar
  32   21   22 ar
  33   21   34 1
  34   22   23 ar
  35   22   35 1
  36   23   24 ar
  37   23   36 1
  38   24   25 ar
  39   24   37 1
  40   25   38 1

#	End of record

