#	Name: ASD01140036
#	Creating user name:	WinNT
#	Creation time:	15. 06. 2019 18:59

#	Modifying user name:	WinNT
#	Modification time:	15. 06. 2019 18:59

#	Program:	/corina/corina34_cracker 3.40 0067  02.08.2006

@<TRIPOS>MOLECULE
ASD01140036
  46   49    0    0    0
SMALL
NO_CHARGES


@<TRIPOS>ATOM
   1 C1            -0.0178     1.4048    -0.0196 C.2     
   2 C2             0.0001    -0.0026    -0.0693 C.2     
   3 C3             1.1936    -0.6524    -0.1451 C.2     
   4 C4             2.3876     0.0864    -0.1727 C.2     
   5 C5             2.3542     1.4353    -0.1243 C.2     
   6 N6             1.1645     2.0982    -0.0482 N.pl3   
   7 N7            -1.0119     2.2808     0.0605 N.2     
   8 C8            -0.5153     3.5153     0.0790 C.2     
   9 C9             0.8464     3.4354     0.0129 C.2     
  10 C10            1.7960     4.5677     0.0100 C.ar    
  11 C11            1.4119     5.8043     0.5341 C.ar    
  12 C12            2.2973     6.8631     0.5319 C.ar    
  13 C13            3.5696     6.7070     0.0117 C.ar    
  14 C14            3.9655     5.4744    -0.5150 C.ar    
  15 C15            3.0786     4.4020    -0.5105 C.ar    
  16 C16            5.3283     5.3084    -1.0723 C.ar    
  17 C17            5.5033     5.0474    -2.4281 C.ar    
  18 C18            6.7749     4.8929    -2.9433 C.ar    
  19 C19            7.8832     4.9962    -2.1195 C.ar    
  20 C20            7.7308     5.2550    -0.7730 C.ar    
  21 C21            6.4538     5.4195    -0.2351 C.ar    
  22 F22            4.4308     7.7479     0.0124 F       
  23 C23            6.2893     5.6883     1.1618 C.1     
  24 N24            6.1588     5.9015     2.2700 N.1     
  25 C25            1.2338    -2.1579    -0.1988 C.3     
  26 C26            1.9118    -2.6041    -1.4957 C.3     
  27 C27            2.0234    -2.6900     0.9988 C.3     
  28 O28           -0.0990    -2.6717    -0.1568 O.3     
  29 H29           -0.9241    -0.5609    -0.0472 H       
  30 H30            3.3362    -0.4264    -0.2325 H       
  31 H31            3.2779     1.9945    -0.1457 H       
  32 H32           -1.0917     4.4265     0.1396 H       
  33 H33            0.4200     5.9323     0.9416 H       
  34 H34            1.9955     7.8175     0.9375 H       
  35 H35            3.3800     3.4475    -0.9160 H       
  36 H36            4.6441     4.9652    -3.0773 H       
  37 H37            6.9060     4.6897    -3.9959 H       
  38 H38            8.8730     4.8732    -2.5336 H       
  39 H39            8.5996     5.3343    -0.1364 H       
  40 H40            2.9284    -2.2122    -1.5277 H       
  41 H41            1.9408    -3.6930    -1.5345 H       
  42 H42            1.3492    -2.2250    -2.3489 H       
  43 H43            1.5404    -2.3721     1.9228 H       
  44 H44            2.0525    -3.7789     0.9600 H       
  45 H45            3.0400    -2.2981     0.9668 H       
  46 H46           -0.6582    -2.3749    -0.8878 H       
@<TRIPOS>BOND
   1    1    2 1
   2    1    6 1
   3    1    7 2
   4    2    3 2
   5    2   29 1
   6    3    4 1
   7    3   25 1
   8    4    5 2
   9    4   30 1
  10    5    6 1
  11    5   31 1
  12    6    9 1
  13    7    8 1
  14    8    9 2
  15    8   32 1
  16    9   10 1
  17   10   11 ar
  18   10   15 ar
  19   11   12 ar
  20   11   33 1
  21   12   13 ar
  22   12   34 1
  23   13   14 ar
  24   13   22 1
  25   14   15 ar
  26   14   16 1
  27   15   35 1
  28   16   17 ar
  29   16   21 ar
  30   17   18 ar
  31   17   36 1
  32   18   19 ar
  33   18   37 1
  34   19   20 ar
  35   19   38 1
  36   20   21 ar
  37   20   39 1
  38   21   23 1
  39   23   24 3
  40   25   26 1
  41   25   27 1
  42   25   28 1
  43   26   40 1
  44   26   41 1
  45   26   42 1
  46   27   43 1
  47   27   44 1
  48   27   45 1
  49   28   46 1

#	End of record

