#	Name: ASD01811210
#	Creating user name:	WinNT
#	Creation time:	15. 06. 2019 19:26

#	Modifying user name:	WinNT
#	Modification time:	15. 06. 2019 19:26

#	Program:	/corina/corina34_cracker 3.40 0067  02.08.2006

@<TRIPOS>MOLECULE
ASD01811210
  30   31    0    0    0
SMALL
NO_CHARGES


@<TRIPOS>ATOM
   1 C1            -0.0098     1.4717     0.0871 C.2     
   2 C2             0.0060    -0.0047     0.0394 C.ar    
   3 C3             1.2134    -0.6884    -0.1185 C.ar    
   4 C4             1.2210    -2.0670    -0.1618 C.ar    
   5 C5             0.0357    -2.7725    -0.0497 C.ar    
   6 C6            -1.1640    -2.1014     0.1065 C.ar    
   7 C7            -1.1853    -0.7229     0.1576 C.ar    
   8 O8             1.0355     2.0904     0.0944 O.2     
   9 O9            -1.1836     2.1321     0.1170 O.3     
  10 C10            0.0519    -4.2786    -0.0984 C.3     
  11 C11           -0.5044    -4.9434     1.1726 C.3     
  12 C12           -1.1835    -5.9375     0.2516 C.2     
  13 C13           -1.1522    -4.8853    -0.8391 C.3     
  14 O14           -1.5785    -7.0747     0.3459 O.2     
  15 C15            2.5050     0.0782    -0.2417 C.3     
  16 C16           -1.1231     3.5821     0.1634 C.3     
  17 H17            2.1540    -2.5970    -0.2838 H       
  18 H18           -2.0854    -2.6581     0.1927 H       
  19 H19           -2.1220    -0.2004     0.2844 H       
  20 H20            1.0126    -4.6820    -0.4183 H       
  21 H21            0.2634    -5.3875     1.8060 H       
  22 H22           -1.2008    -4.3139     1.7266 H       
  23 H23           -2.0303    -4.2395    -0.8493 H       
  24 H24           -0.9054    -5.2827    -1.8236 H       
  25 H25            2.8704     0.3366     0.7522 H       
  26 H26            3.2455    -0.5373    -0.7524 H       
  27 H27            2.3332     0.9898    -0.8140 H       
  28 H28           -0.5881     3.8950     1.0600 H       
  29 H29           -0.6012     3.9524    -0.7190 H       
  30 H30           -2.1348     3.9874     0.1839 H       
@<TRIPOS>BOND
   1    1    2 1
   2    1    8 2
   3    1    9 1
   4    2    3 ar
   5    2    7 ar
   6    3    4 ar
   7    3   15 1
   8    4    5 ar
   9    4   17 1
  10    5    6 ar
  11    5   10 1
  12    6    7 ar
  13    6   18 1
  14    7   19 1
  15    9   16 1
  16   10   11 1
  17   10   13 1
  18   10   20 1
  19   11   12 1
  20   11   21 1
  21   11   22 1
  22   12   13 1
  23   12   14 2
  24   13   23 1
  25   13   24 1
  26   15   25 1
  27   15   26 1
  28   15   27 1
  29   16   28 1
  30   16   29 1
  31   16   30 1

#	End of record

