#	Name: ASD01883829
#	Creating user name:	WinNT
#	Creation time:	15. 06. 2019 19:47

#	Modifying user name:	WinNT
#	Modification time:	15. 06. 2019 19:47

#	Program:	/corina/corina34_cracker 3.40 0067  02.08.2006

@<TRIPOS>MOLECULE
ASD01883829
  52   54    0    0    0
SMALL
NO_CHARGES


@<TRIPOS>ATOM
   1 N1             0.0778     1.4090     0.6756 N.ar    
   2 C2             0.0573     0.0916     0.6035 C.ar    
   3 C3             1.2259    -0.6283     0.4664 C.ar    
   4 C4             2.4420     0.0582     0.4043 C.ar    
   5 C5             2.4176     1.4532     0.4845 C.ar    
   6 C6             1.2035     2.0947     0.6209 C.ar    
   7 C7             3.7240    -0.6743     0.2577 C.2     
   8 C8             3.8652    -2.0619     0.0689 C.2     
   9 C9             5.1939    -2.3357    -0.0198 C.2     
  10 N10            5.8672    -1.1620     0.1086 N.pl3   
  11 N11            4.9261    -0.1383     0.2759 N.2     
  12 C12            1.1630     3.5986     0.7086 C.3     
  13 C13            7.3223    -0.9962     0.0737 C.3     
  14 C14            7.7868    -0.8714    -1.3788 C.3     
  15 O15            7.2559     0.3273    -1.9473 O.3     
  16 N16            5.7629    -3.5928    -0.2079 N.pl3   
  17 C17            6.1906    -4.3379     0.8938 C.ar    
  18 C18            6.6648    -5.6317     0.7172 C.ar    
  19 C19            7.0877    -6.3666     1.8077 C.ar    
  20 C20            7.0395    -5.8167     3.0750 C.ar    
  21 C21            6.5674    -4.5268     3.2559 C.ar    
  22 C22            6.1480    -3.7843     2.1671 C.ar    
  23 C23            7.5009    -6.6221     4.2623 C.3     
  24 F24            7.9293    -7.8827     3.8326 F       
  25 F25            8.5598    -5.9594     4.8922 F       
  26 F26            6.4419    -6.7718     5.1642 F       
  27 F27            6.5211    -3.9924     4.4959 F       
  28 C28            5.9128    -4.1340    -1.5610 C.3     
  29 C29            9.3154    -0.8235    -1.4231 C.3     
  30 C30            7.0236     0.2496    -3.3552 C.3     
  31 H31           -0.8872    -0.4300     0.6527 H       
  32 H32            1.2017    -1.7064     0.4083 H       
  33 H33            3.3354     2.0208     0.4408 H       
  34 H34            3.0617    -2.7808     0.0062 H       
  35 H35            1.2378     3.9038     1.7523 H       
  36 H36            1.9976     4.0179     0.1467 H       
  37 H37            0.2243     3.9618     0.2902 H       
  38 H38            7.5986    -0.0956     0.6221 H       
  39 H39            7.7979    -1.8622     0.5341 H       
  40 H40            7.4335    -1.7311    -1.9483 H       
  41 H41            6.7024    -6.0630    -0.2723 H       
  42 H42            7.4562    -7.3724     1.6700 H       
  43 H43            5.7800    -2.7788     2.3077 H       
  44 H44            6.9156    -3.9181    -1.9296 H       
  45 H45            5.7578    -5.2127    -1.5401 H       
  46 H46            5.1766    -3.6738    -2.2200 H       
  47 H47            9.6462    -0.7347    -2.4579 H       
  48 H48            9.6686     0.0361    -0.8536 H       
  49 H49            9.7203    -1.7379    -0.9895 H       
  50 H50            7.9625     0.0390    -3.8673 H       
  51 H51            6.3101    -0.5480    -3.5622 H       
  52 H52            6.6210     1.1983    -3.7099 H       
@<TRIPOS>BOND
   1    1    2 ar
   2    1    6 ar
   3    2    3 ar
   4    2   31 1
   5    3    4 ar
   6    3   32 1
   7    4    5 ar
   8    4    7 1
   9    5    6 ar
  10    5   33 1
  11    6   12 1
  12    7    8 1
  13    7   11 2
  14    8    9 2
  15    8   34 1
  16    9   10 1
  17    9   16 1
  18   10   11 1
  19   10   13 1
  20   12   35 1
  21   12   36 1
  22   12   37 1
  23   13   14 1
  24   13   38 1
  25   13   39 1
  26   14   15 1
  27   14   29 1
  28   14   40 1
  29   15   30 1
  30   16   17 1
  31   16   28 1
  32   17   18 ar
  33   17   22 ar
  34   18   19 ar
  35   18   41 1
  36   19   20 ar
  37   19   42 1
  38   20   21 ar
  39   20   23 1
  40   21   22 ar
  41   21   27 1
  42   22   43 1
  43   23   24 1
  44   23   25 1
  45   23   26 1
  46   28   44 1
  47   28   45 1
  48   28   46 1
  49   29   47 1
  50   29   48 1
  51   29   49 1
  52   30   50 1
  53   30   51 1
  54   30   52 1

#	End of record

