#	Name: ASD01142012
#	Creating user name:	WinNT
#	Creation time:	15. 06. 2019 19:01

#	Modifying user name:	WinNT
#	Modification time:	15. 06. 2019 19:01

#	Program:	/corina/corina34_cracker 3.40 0067  02.08.2006

@<TRIPOS>MOLECULE
ASD01142012
  40   43    0    0    0
SMALL
NO_CHARGES


@<TRIPOS>ATOM
   1 C1             0.0951     0.9330     1.0466 C.ar    
   2 C2             0.2879    -0.4446     1.0161 C.ar    
   3 C3             1.5151    -0.9813     0.6464 C.ar    
   4 C4             2.5729    -0.1126     0.2995 C.ar    
   5 C5             2.3538     1.2855     0.3377 C.ar    
   6 C6             1.1039     1.7898     0.7151 C.ar    
   7 C7             1.7116    -2.4477     0.6172 C.ar    
   8 N8             0.7024    -3.2437     0.9480 N.ar    
   9 C9             0.8451    -4.5575     0.9316 C.ar    
  10 C10            2.0669    -5.1012     0.5633 C.ar    
  11 C11            3.1007    -4.2411     0.2235 C.ar    
  12 N12            2.8913    -2.9365     0.2554 N.ar    
  13 N13            3.7729    -0.5823    -0.0627 N.ar    
  14 N14            4.7419     0.1976    -0.3798 N.ar    
  15 C15            4.6391     1.5277    -0.3763 C.ar    
  16 C16            3.4290     2.1382    -0.0145 C.ar    
  17 N17            3.2921     3.5087    -0.0017 N.pl3   
  18 C18            5.7979     2.3565    -0.7528 C.2     
  19 O19            5.6771     3.5628    -0.8490 O.2     
  20 N20            6.9916     1.7777    -0.9907 N.am    
  21 C21            8.3342     2.2387    -1.3747 C.3     
  22 C22            8.9030     1.0039    -0.6622 C.3     
  23 C23            7.5262     0.4077    -0.9741 C.3     
  24 C24           10.0626     0.3321    -1.4005 C.3     
  25 F25           -0.7289    -1.2692     1.3499 F       
  26 H26           -0.8679     1.3297     1.3325 H       
  27 H27            0.9379     2.8566     0.7435 H       
  28 H28            0.0204    -5.2002     1.2022 H       
  29 H29            2.2103    -6.1714     0.5419 H       
  30 H30            4.0641    -4.6329    -0.0677 H       
  31 H31            4.0781     4.0741     0.0569 H       
  32 H32            2.4097     3.9085    -0.0513 H       
  33 H33            8.5031     2.2347    -2.4515 H       
  34 H34            8.6203     3.1804    -0.9062 H       
  35 H35            9.0929     1.1494     0.4013 H       
  36 H36            7.1263    -0.2067    -0.1674 H       
  37 H37            7.4766    -0.0857    -1.9447 H       
  38 H38           10.8819     1.0422    -1.5125 H       
  39 H39           10.4053    -0.5310    -0.8298 H       
  40 H40            9.7266     0.0067    -2.3850 H       
@<TRIPOS>BOND
   1    1    2 ar
   2    1    6 ar
   3    1   26 1
   4    2    3 ar
   5    2   25 1
   6    3    4 ar
   7    3    7 1
   8    4    5 ar
   9    4   13 ar
  10    5    6 ar
  11    5   16 ar
  12    6   27 1
  13    7    8 ar
  14    7   12 ar
  15    8    9 ar
  16    9   10 ar
  17    9   28 1
  18   10   11 ar
  19   10   29 1
  20   11   12 ar
  21   11   30 1
  22   13   14 ar
  23   14   15 ar
  24   15   16 ar
  25   15   18 1
  26   16   17 1
  27   17   31 1
  28   17   32 1
  29   18   19 2
  30   18   20 am
  31   20   21 1
  32   20   23 1
  33   21   22 1
  34   21   33 1
  35   21   34 1
  36   22   23 1
  37   22   24 1
  38   22   35 1
  39   23   36 1
  40   23   37 1
  41   24   38 1
  42   24   39 1
  43   24   40 1

#	End of record

