#	Name: ASD05313112
#	Creating user name:	WinNT
#	Creation time:	15. 06. 2019 20:58

#	Modifying user name:	WinNT
#	Modification time:	15. 06. 2019 20:58

#	Program:	/corina/corina34_cracker 3.40 0067  02.08.2006

@<TRIPOS>MOLECULE
ASD05313112
  37   40    0    0    0
SMALL
NO_CHARGES


@<TRIPOS>ATOM
   1 C1            -0.0645     0.7538     1.0937 C.2     
   2 C2             0.1305    -0.6714     0.6341 C.3     
   3 N3             0.9284     1.6771     1.1248 N.pl3   
   4 N4             1.4659    -0.7440     0.0116 N.am    
   5 C5             2.5825    -0.0643     0.6858 C.3     
   6 C6             2.3121     1.4447     0.7140 C.3     
   7 N7            -0.9058     2.5532     1.8270 N.2     
   8 N8            -1.1498     1.3246     1.5237 N.2     
   9 C9             0.3643     2.8213     1.6009 C.2     
  10 C10            1.0464     4.1145     1.8246 C.ar    
  11 C11            0.3322     5.2070     2.3211 C.ar    
  12 N12            2.3442     4.2398     1.5586 N.ar    
  13 N13            0.9462     6.3580     2.5190 N.ar    
  14 C14            2.2350     6.4775     2.2479 C.ar    
  15 C15            2.9484     5.3959     1.7603 C.ar    
  16 C16            1.6574    -1.4143    -1.1419 C.2     
  17 O17            2.7412    -1.3806    -1.6918 O.2     
  18 C18            0.5512    -2.1895    -1.7376 C.ar    
  19 C19            0.3194    -2.1376    -3.1163 C.ar    
  20 C20           -0.7181    -2.8667    -3.6662 C.ar    
  21 C21           -1.5254    -3.6454    -2.8554 C.ar    
  22 C22           -1.3000    -3.6996    -1.4892 C.ar    
  23 C23           -0.2652    -2.9825    -0.9282 C.ar    
  24 F24            1.1069    -1.3768    -3.9076 F       
  25 Cl25          -2.8269    -4.5580    -3.5532 Cl      
  26 H26            0.0806    -1.3477     1.4875 H       
  27 H27           -0.6350    -0.9349    -0.0958 H       
  28 H28            2.6729    -0.4370     1.7061 H       
  29 H29            3.5078    -0.2583     0.1432 H       
  30 H30            2.4717     1.8618    -0.2803 H       
  31 H31            2.9877     1.9228     1.4232 H       
  32 H32           -0.7205     5.1101     2.5422 H       
  33 H33            2.7337     7.4215     2.4110 H       
  34 H34            4.0018     5.4980     1.5449 H       
  35 H35           -0.8992    -2.8285    -4.7302 H       
  36 H36           -1.9344    -4.3092    -0.8628 H       
  37 H37           -0.0889    -3.0301     0.1363 H       
@<TRIPOS>BOND
   1    1    2 1
   2    1    3 1
   3    1    8 2
   4    2    4 1
   5    2   26 1
   6    2   27 1
   7    3    6 1
   8    3    9 1
   9    4    5 1
  10    4   16 am
  11    5    6 1
  12    5   28 1
  13    5   29 1
  14    6   30 1
  15    6   31 1
  16    7    8 1
  17    7    9 2
  18    9   10 1
  19   10   11 ar
  20   10   12 ar
  21   11   13 ar
  22   11   32 1
  23   12   15 ar
  24   13   14 ar
  25   14   15 ar
  26   14   33 1
  27   15   34 1
  28   16   17 2
  29   16   18 1
  30   18   19 ar
  31   18   23 ar
  32   19   20 ar
  33   19   24 1
  34   20   21 ar
  35   20   35 1
  36   21   22 ar
  37   21   25 1
  38   22   23 ar
  39   22   36 1
  40   23   37 1

#	End of record

