#	Name: ASD03091830
#	Creating user name:	WinNT
#	Creation time:	15. 06. 2019 20:31

#	Modifying user name:	WinNT
#	Modification time:	15. 06. 2019 20:31

#	Program:	/corina/corina34_cracker 3.40 0067  02.08.2006

@<TRIPOS>MOLECULE
ASD03091830
  47   51    0    0    0
SMALL
NO_CHARGES


@<TRIPOS>ATOM
   1 N1            -0.0165     1.3641     0.0095 N.pl3   
   2 C2             0.0021    -0.0041     0.0020 C.2     
   3 C3             1.2698    -0.4448    -0.0124 C.2     
   4 C4             2.1340     0.7385    -0.0143 C.ar    
   5 C5             3.5155     0.9285    -0.0269 C.ar    
   6 C6             4.0261     2.2194    -0.0252 C.ar    
   7 C7             3.1587     3.3172    -0.0111 C.ar    
   8 C8             1.8062     3.1362     0.0013 C.ar    
   9 C9             1.2714     1.8506    -0.0001 C.ar    
  10 C10            5.4934     2.4352    -0.0380 C.ar    
  11 C11            6.0082     3.7304    -0.0364 C.ar    
  12 N12            6.3197     1.3930    -0.0456 N.ar    
  13 N13            7.3148     3.9204    -0.0478 N.ar    
  14 C14            8.1367     2.8799    -0.0608 C.ar    
  15 C15            7.6244     1.5866    -0.0570 C.ar    
  16 O16            9.4790     3.0769    -0.0730 O.3     
  17 C17           11.8400     5.9395     0.5042 C.3     
  18 C18           11.2910     4.5101     0.6383 C.3     
  19 C19            9.9361     4.4309    -0.0710 C.3     
  20 C20           10.0786     4.9226    -1.5143 C.3     
  21 C21           10.7098     6.3240    -1.5024 C.3     
  22 C22            9.9554     7.1736    -0.4539 C.3     
  23 C23           10.7023     6.9195     0.8721 C.3     
  24 N24           12.0805     6.1853    -0.9426 N.3     
  25 C25           12.8589     7.4146    -1.1455 C.3     
  26 H26           -0.8181     1.9101     0.0165 H       
  27 H27           -0.8738    -0.6359     0.0075 H       
  28 H28            1.5917    -1.4757    -0.0207 H       
  29 H29            4.1822     0.0789    -0.0375 H       
  30 H30            3.5638     4.3184    -0.0095 H       
  31 H31            1.1485     3.9928     0.0125 H       
  32 H32            5.3389     4.5779    -0.0261 H       
  33 H33            8.2955     0.7404    -0.0631 H       
  34 H34           12.7312     6.0957     1.1121 H       
  35 H35           11.9856     3.8075     0.1779 H       
  36 H36           11.1659     4.2645     1.6929 H       
  37 H37            9.2145     5.0563     0.4547 H       
  38 H38           10.7187     4.2385    -2.0714 H       
  39 H39            9.0955     4.9688    -1.9829 H       
  40 H40           10.7024     6.7859    -2.4897 H       
  41 H41           10.0004     8.2301    -0.7182 H       
  42 H42            8.9190     6.8455    -0.3743 H       
  43 H43           10.0331     6.4665     1.6036 H       
  44 H44           11.1146     7.8511     1.2597 H       
  45 H45           13.8212     7.3225    -0.6419 H       
  46 H46           13.0204     7.5705    -2.2121 H       
  47 H47           12.3126     8.2628    -0.7330 H       
@<TRIPOS>BOND
   1    1    2 1
   2    1    9 1
   3    1   26 1
   4    2    3 2
   5    2   27 1
   6    3    4 1
   7    3   28 1
   8    4    5 ar
   9    4    9 ar
  10    5    6 ar
  11    5   29 1
  12    6    7 ar
  13    6   10 1
  14    7    8 ar
  15    7   30 1
  16    8    9 ar
  17    8   31 1
  18   10   11 ar
  19   10   12 ar
  20   11   13 ar
  21   11   32 1
  22   12   15 ar
  23   13   14 ar
  24   14   15 ar
  25   14   16 1
  26   15   33 1
  27   16   19 1
  28   17   18 1
  29   17   23 1
  30   17   24 1
  31   17   34 1
  32   18   19 1
  33   18   35 1
  34   18   36 1
  35   19   20 1
  36   19   37 1
  37   20   21 1
  38   20   38 1
  39   20   39 1
  40   21   22 1
  41   21   24 1
  42   21   40 1
  43   22   23 1
  44   22   41 1
  45   22   42 1
  46   23   43 1
  47   23   44 1
  48   24   25 1
  49   25   45 1
  50   25   46 1
  51   25   47 1

#	End of record

