#	Name: ASD01810149
#	Creating user name:	WinNT
#	Creation time:	15. 06. 2019 19:23

#	Modifying user name:	WinNT
#	Modification time:	15. 06. 2019 19:23

#	Program:	/corina/corina34_cracker 3.40 0067  02.08.2006

@<TRIPOS>MOLECULE
ASD01810149
  34   36    0    0    0
SMALL
NO_CHARGES


@<TRIPOS>ATOM
   1 C1             1.4578     1.3842    -2.9494 C.ar    
   2 C2             1.4210    -0.0018    -2.8979 C.ar    
   3 C3             2.1444    -0.6907    -1.9465 C.ar    
   4 C4             2.9229     0.0077    -1.0239 C.ar    
   5 C5             2.9572     1.4109    -1.0799 C.ar    
   6 C6             2.2201     2.0934    -2.0478 C.ar    
   7 N7             3.6500    -0.6682    -0.0671 N.pl3   
   8 C8             4.4108    -0.0443     0.8408 C.2     
   9 C9             4.5237     1.3309     0.8858 C.2     
  10 C10            3.7844     2.1375    -0.0985 C.2     
  11 O11            3.8510     3.3542    -0.1009 O.2     
  12 C12            5.3687     1.9784     1.8991 C.2     
  13 O13            5.4708     3.3222     1.9328 O.3     
  14 O14            5.9755     1.3023     2.7068 O.2     
  15 C15            3.5871    -2.1316    -0.0427 C.3     
  16 C16            4.4057    -2.6504     1.1113 C.ar    
  17 C17            3.8316    -2.7821     2.3639 C.ar    
  18 C18            4.5848    -3.2588     3.4236 C.ar    
  19 C19            5.9094    -3.6031     3.2309 C.ar    
  20 C20            6.4838    -3.4716     1.9807 C.ar    
  21 C21            5.7308    -3.0009     0.9182 C.ar    
  22 F22            6.2925    -2.8729    -0.3038 F       
  23 F23            2.5370    -2.4452     2.5527 F       
  24 F24            2.0984    -2.0403    -1.9082 F       
  25 H25            0.8895     1.9092    -3.7029 H       
  26 H26            0.8193    -0.5471    -3.6100 H       
  27 H27            2.2474     3.1722    -2.0902 H       
  28 H28            4.9540    -0.6365     1.5623 H       
  29 H29            6.0384     3.7023     2.6173 H       
  30 H30            2.5510    -2.4488     0.0753 H       
  31 H31            3.9843    -2.5280    -0.9771 H       
  32 H32            4.1371    -3.3613     4.4011 H       
  33 H33            6.4961    -3.9749     4.0579 H       
  34 H34            7.5192    -3.7403     1.8315 H       
@<TRIPOS>BOND
   1    1    2 ar
   2    1    6 ar
   3    1   25 1
   4    2    3 ar
   5    2   26 1
   6    3    4 ar
   7    3   24 1
   8    4    5 ar
   9    4    7 1
  10    5    6 ar
  11    5   10 1
  12    6   27 1
  13    7    8 1
  14    7   15 1
  15    8    9 2
  16    8   28 1
  17    9   10 1
  18    9   12 1
  19   10   11 2
  20   12   13 1
  21   12   14 2
  22   13   29 1
  23   15   16 1
  24   15   30 1
  25   15   31 1
  26   16   17 ar
  27   16   21 ar
  28   17   18 ar
  29   17   23 1
  30   18   19 ar
  31   18   32 1
  32   19   20 ar
  33   19   33 1
  34   20   21 ar
  35   20   34 1
  36   21   22 1

#	End of record

