#	Name: ASD01880941
#	Creating user name:	WinNT
#	Creation time:	15. 06. 2019 19:41

#	Modifying user name:	WinNT
#	Modification time:	15. 06. 2019 19:41

#	Program:	/corina/corina34_cracker 3.40 0067  02.08.2006

@<TRIPOS>MOLECULE
ASD01880941
  51   54    0    0    0
SMALL
NO_CHARGES


@<TRIPOS>ATOM
   1 N1            -0.0168     1.3115     0.0133 N.ar    
   2 C2             0.0031    -0.0058     0.0027 C.ar    
   3 N3             1.1330    -0.6839    -0.0157 N.ar    
   4 C4             2.3031    -0.0611    -0.0244 C.ar    
   5 C5             2.3315     1.3197    -0.0139 C.ar    
   6 C6             1.1165     2.0074     0.0056 C.ar    
   7 C7             3.6410     2.0654    -0.0233 C.3     
   8 O8             4.7202     1.1342     0.0782 O.3     
   9 C9             5.9771     1.6459     0.0836 C.ar    
  10 C10            7.0738     0.7943     0.1801 C.ar    
  11 C11            8.3449     1.3119     0.1851 C.ar    
  12 C12            8.5472     2.6933     0.0937 C.ar    
  13 C13            7.4419     3.5453    -0.0030 C.ar    
  14 C14            6.1676     3.0185    -0.0128 C.ar    
  15 C15            9.7146     0.6863     0.2739 C.3     
  16 N16           10.6749     1.7948     0.2266 N.am    
  17 C17            9.9967     2.9505     0.1226 C.2     
  18 O18           10.5077     4.0521     0.0608 O.2     
  19 Cl19           7.6742     5.2620    -0.1166 Cl      
  20 N20            1.0919     3.3926     0.0163 N.3     
  21 C21            0.5156     3.8949    -1.1620 C.3     
  22 C22            0.6574     5.4297    -1.2501 C.3     
  23 C23           -0.3311     6.0719    -0.3109 C.3     
  24 O24            0.2185     6.3147     1.0003 O.3     
  25 C25            1.0452     5.2695     1.5442 C.3     
  26 C26            0.4805     3.9011     1.2598 C.3     
  27 C27           12.6868     1.5160    -1.1357 C.3     
  28 C28           12.1329     1.6633     0.2829 C.3     
  29 H29           -0.9327    -0.5450     0.0097 H       
  30 H30            3.2231    -0.6266    -0.0392 H       
  31 H31            3.7324     2.6276    -0.9526 H       
  32 H32            3.6737     2.7529     0.8220 H       
  33 H33            6.9247    -0.2730     0.2512 H       
  34 H34            5.3142     3.6760    -0.0878 H       
  35 H35            9.8174     0.1412     1.2123 H       
  36 H36            9.8753     0.0149    -0.5696 H       
  37 H37            1.0092     3.4415    -2.0216 H       
  38 H38           -0.5423     3.6331    -1.1810 H       
  39 H39            1.6696     5.7189    -0.9673 H       
  40 H40            0.4557     5.7563    -2.2703 H       
  41 H41           -0.6553     7.0212    -0.7373 H       
  42 H42           -1.1983     5.4188    -0.2130 H       
  43 H43            2.0408     5.3405     1.1064 H       
  44 H44            1.1231     5.4039     2.6231 H       
  45 H45           -0.6002     3.9694     1.1353 H       
  46 H46            0.7155     3.2290     2.0851 H       
  47 H47           12.4237     2.3965    -1.7218 H       
  48 H48           13.7716     1.4182    -1.0939 H       
  49 H49           12.2597     0.6282    -1.6022 H       
  50 H50           12.5600     2.5511     0.7493 H       
  51 H51           12.3959     0.7827     0.8689 H       
@<TRIPOS>BOND
   1    1    2 ar
   2    1    6 ar
   3    2    3 ar
   4    2   29 1
   5    3    4 ar
   6    4    5 ar
   7    4   30 1
   8    5    6 ar
   9    5    7 1
  10    6   20 1
  11    7    8 1
  12    7   31 1
  13    7   32 1
  14    8    9 1
  15    9   10 ar
  16    9   14 ar
  17   10   11 ar
  18   10   33 1
  19   11   12 ar
  20   11   15 1
  21   12   13 ar
  22   12   17 1
  23   13   14 ar
  24   13   19 1
  25   14   34 1
  26   15   16 1
  27   15   35 1
  28   15   36 1
  29   16   17 am
  30   16   28 1
  31   17   18 2
  32   20   21 1
  33   20   26 1
  34   21   22 1
  35   21   37 1
  36   21   38 1
  37   22   23 1
  38   22   39 1
  39   22   40 1
  40   23   24 1
  41   23   41 1
  42   23   42 1
  43   24   25 1
  44   25   26 1
  45   25   43 1
  46   25   44 1
  47   26   45 1
  48   26   46 1
  49   27   28 1
  50   27   47 1
  51   27   48 1
  52   27   49 1
  53   28   50 1
  54   28   51 1

#	End of record

