#	Name: ASD01911500
#	Creating user name:	WinNT
#	Creation time:	15. 06. 2019 19:57

#	Modifying user name:	WinNT
#	Modification time:	15. 06. 2019 19:57

#	Program:	/corina/corina34_cracker 3.40 0067  02.08.2006

@<TRIPOS>MOLECULE
ASD01911500
  56   57    0    0    0
SMALL
NO_CHARGES


@<TRIPOS>ATOM
   1 C1             0.8396    -0.6516     0.1994 C.3     
   2 C2             0.7991    -1.3046     1.5824 C.3     
   3 C3             1.4564    -0.3752     2.6047 C.3     
   4 C4             1.4231    -1.0317     3.9863 C.3     
   5 O5            -0.5593    -1.5411     1.9579 O.3     
   6 C6             1.5556    -2.6339     1.5412 C.3     
   7 O7             2.8125    -0.1326     2.2251 O.3     
   8 Si8            3.3310     1.3799     2.5469 Si      
   9 C9             3.3594     1.6483     4.3954 C.ar    
  10 C10            4.1146     0.8184     5.2028 C.ar    
  11 C11            4.1355     1.0170     6.5706 C.ar    
  12 C12            3.4017     2.0458     7.1310 C.ar    
  13 C13            2.6473     2.8762     6.3235 C.ar    
  14 C14            2.6297     2.6803     4.9552 C.ar    
  15 C15            5.0524     1.6078     1.8582 C.ar    
  16 C16            6.1472     1.1536     2.5695 C.ar    
  17 C17            7.4210     1.3223     2.0598 C.ar    
  18 C18            7.6000     1.9448     0.8385 C.ar    
  19 C19            6.5051     2.3981     0.1268 C.ar    
  20 C20            5.2310     2.2256     0.6345 C.ar    
  21 C21            2.1783     2.6126     1.7581 C.3     
  22 C22            0.8200     2.5629     2.4607 C.3     
  23 C23            2.7684     4.0183     1.8878 C.3     
  24 C24            1.9996     2.2691     0.2779 C.3     
  25 N25            1.8642    -0.0636     4.9992 N.3     
  26 H26            1.8647    -0.3669    -0.0381 H       
  27 H27            0.4767    -1.3584    -0.5469 H       
  28 H28            0.2065     0.2356     0.1977 H       
  29 H29            0.9139     0.5696     2.6383 H       
  30 H30            0.4066    -1.3548     4.2107 H       
  31 H31            2.0888    -1.8948     3.9945 H       
  32 H32           -0.6611    -1.9544     2.8262 H       
  33 H33            2.5917    -2.4535     1.2548 H       
  34 H34            1.5267    -3.0991     2.5265 H       
  35 H35            1.0874    -3.2960     0.8129 H       
  36 H36            4.6879     0.0147     4.7649 H       
  37 H37            4.7250     0.3682     7.2015 H       
  38 H38            3.4175     2.2005     8.1997 H       
  39 H39            2.0737     3.6798     6.7614 H       
  40 H40            2.0432     3.3314     4.3239 H       
  41 H41            6.0074     0.6673     3.5236 H       
  42 H42            8.2764     0.9681     2.6158 H       
  43 H43            8.5953     2.0772     0.4407 H       
  44 H44            6.6450     2.8848    -0.8272 H       
  45 H45            4.3753     2.5765     0.0767 H       
  46 H46            0.9678     2.3748     3.5241 H       
  47 H47            0.3073     3.5156     2.3280 H       
  48 H48            0.2175     1.7630     2.0305 H       
  49 H49            3.7721     4.0316     1.4628 H       
  50 H50            2.1377     4.7280     1.3524 H       
  51 H51            2.8159     4.2967     2.9405 H       
  52 H52            1.4592     1.3270     0.1862 H       
  53 H53            1.4346     3.0613    -0.2134 H       
  54 H54            2.9777     2.1743    -0.1937 H       
  55 H55            1.3022     0.7739     4.9679 H       
  56 H56            1.8510    -0.4735     5.9211 H       
@<TRIPOS>BOND
   1    1    2 1
   2    1   26 1
   3    1   27 1
   4    1   28 1
   5    2    3 1
   6    2    5 1
   7    2    6 1
   8    3    4 1
   9    3    7 1
  10    3   29 1
  11    4   25 1
  12    4   30 1
  13    4   31 1
  14    5   32 1
  15    6   33 1
  16    6   34 1
  17    6   35 1
  18    7    8 1
  19    8    9 1
  20    8   15 1
  21    8   21 1
  22    9   10 ar
  23    9   14 ar
  24   10   11 ar
  25   10   36 1
  26   11   12 ar
  27   11   37 1
  28   12   13 ar
  29   12   38 1
  30   13   14 ar
  31   13   39 1
  32   14   40 1
  33   15   16 ar
  34   15   20 ar
  35   16   17 ar
  36   16   41 1
  37   17   18 ar
  38   17   42 1
  39   18   19 ar
  40   18   43 1
  41   19   20 ar
  42   19   44 1
  43   20   45 1
  44   21   22 1
  45   21   24 1
  46   21   23 1
  47   22   46 1
  48   22   47 1
  49   22   48 1
  50   23   49 1
  51   23   50 1
  52   23   51 1
  53   24   52 1
  54   24   53 1
  55   24   54 1
  56   25   55 1
  57   25   56 1

#	End of record

