#	Name: ASD03200033
#	Creating user name:	WinNT
#	Creation time:	15. 06. 2019 20:34

#	Modifying user name:	WinNT
#	Modification time:	15. 06. 2019 20:34

#	Program:	/corina/corina34_cracker 3.40 0067  02.08.2006

@<TRIPOS>MOLECULE
ASD03200033
  62   65    0    0    0
SMALL
NO_CHARGES


@<TRIPOS>ATOM
   1 C1             0.3723    -1.0175    -0.0165 C.3     
   2 N2            -0.3564     0.2570     0.0132 N.3     
   3 C3            -0.0301     1.0272     1.2201 C.3     
   4 C4             1.4635     1.3606     1.2258 C.3     
   5 C5             2.2718     0.0605     1.1933 C.3     
   6 C6             1.8779    -0.7452    -0.0477 C.3     
   7 C7            -1.7310     0.0491    -0.0903 C.ar    
   8 C8            -2.5809     0.3457     0.9723 C.ar    
   9 C9            -3.9362     0.1262     0.8306 C.ar    
  10 N10           -4.4320    -0.3579    -0.2924 N.ar    
  11 C11           -3.6645    -0.6532    -1.3248 C.ar    
  12 C12           -2.2945    -0.4580    -1.2673 C.ar    
  13 N13           -1.4840    -0.7727    -2.3664 N.am    
  14 C14           -1.8835    -1.7057    -3.2531 C.2     
  15 C15           -1.0978    -1.9479    -4.4656 C.2     
  16 O16           -2.8974    -2.3473    -3.0465 O.2     
  17 C17           -1.5072    -2.8087    -5.4598 C.2     
  18 S18           -0.2798    -2.8046    -6.7238 S.3     
  19 C19            0.6755    -1.6466    -5.8052 C.2     
  20 N20            0.0704    -1.3488    -4.7006 N.2     
  21 C21            1.9757    -1.0910    -6.2351 C.ar    
  22 N22            1.7935     2.1130     2.4436 N.3     
  23 N23           -2.6744    -3.5458    -5.4649 N.pl3   
  24 C24            2.4871    -1.4027    -7.4964 C.ar    
  25 C25            3.6998    -0.8830    -7.8941 C.ar    
  26 C26            4.4140    -0.0495    -7.0410 C.ar    
  27 C27            3.9076     0.2628    -5.7846 C.ar    
  28 C28            2.6927    -0.2486    -5.3831 C.ar    
  29 N29            5.6444     0.4753    -7.4472 N.am    
  30 C30            5.8289     0.8445    -8.7302 C.2     
  31 N31            7.0435     1.2556    -9.1451 N.am    
  32 O32            4.8997     0.8066    -9.5134 O.2     
  33 C33            7.2441     1.6569   -10.5397 C.3     
  34 C34            8.7010     2.0767   -10.7451 C.3     
  35 H35            0.1264    -1.5973     0.8732 H       
  36 H36            0.0862    -1.5788    -0.9060 H       
  37 H37           -0.6085     1.9511     1.2288 H       
  38 H38           -0.2741     0.4379     2.1040 H       
  39 H39            1.7055     1.9616     0.3493 H       
  40 H40            3.3357     0.2940     1.1535 H       
  41 H41            2.0592    -0.5230     2.0891 H       
  42 H42            2.4188    -1.6915    -0.0540 H       
  43 H43            2.1265    -0.1774    -0.9443 H       
  44 H44           -2.1846     0.7420     1.8955 H       
  45 H45           -4.6007     0.3538     1.6510 H       
  46 H46           -4.1103    -1.0477    -2.2260 H       
  47 H47           -0.6354    -0.3190    -2.4890 H       
  48 H48            2.7751     2.3450     2.4705 H       
  49 H49            1.2237     2.9420     2.5220 H       
  50 H50           -3.2917    -3.4817    -4.7195 H       
  51 H51           -2.8772    -4.1279    -6.2139 H       
  52 H52            1.9331    -2.0507    -8.1594 H       
  53 H53            4.0960    -1.1237    -8.8696 H       
  54 H54            4.4651     0.9103    -5.1240 H       
  55 H55            2.2996    -0.0052    -4.4070 H       
  56 H56            6.3653     0.5737    -6.8057 H       
  57 H57            7.7849     1.2859    -8.5203 H       
  58 H58            7.0116     0.8184   -11.1961 H       
  59 H59            6.5880     2.4950   -10.7746 H       
  60 H60            8.9336     2.9152   -10.0887 H       
  61 H61            9.3572     1.2386   -10.5102 H       
  62 H62            8.8503     2.3752   -11.7828 H       
@<TRIPOS>BOND
   1    1    2 1
   2    1    6 1
   3    1   35 1
   4    1   36 1
   5    2    3 1
   6    2    7 1
   7    3    4 1
   8    3   37 1
   9    3   38 1
  10    4    5 1
  11    4   22 1
  12    4   39 1
  13    5    6 1
  14    5   40 1
  15    5   41 1
  16    6   42 1
  17    6   43 1
  18    7    8 ar
  19    7   12 ar
  20    8    9 ar
  21    8   44 1
  22    9   10 ar
  23    9   45 1
  24   10   11 ar
  25   11   12 ar
  26   11   46 1
  27   12   13 1
  28   13   14 am
  29   13   47 1
  30   14   15 1
  31   14   16 2
  32   15   17 2
  33   15   20 1
  34   17   18 1
  35   17   23 1
  36   18   19 1
  37   19   20 2
  38   19   21 1
  39   21   24 ar
  40   21   28 ar
  41   22   48 1
  42   22   49 1
  43   23   50 1
  44   23   51 1
  45   24   25 ar
  46   24   52 1
  47   25   26 ar
  48   25   53 1
  49   26   27 ar
  50   26   29 1
  51   27   28 ar
  52   27   54 1
  53   28   55 1
  54   29   30 am
  55   29   56 1
  56   30   31 am
  57   30   32 2
  58   31   33 1
  59   31   57 1
  60   33   34 1
  61   33   58 1
  62   33   59 1
  63   34   60 1
  64   34   61 1
  65   34   62 1

#	End of record

