#	Name: ASD03090574
#	Creating user name:	WinNT
#	Creation time:	15. 06. 2019 20:29

#	Modifying user name:	WinNT
#	Modification time:	15. 06. 2019 20:29

#	Program:	/corina/corina34_cracker 3.40 0067  02.08.2006

@<TRIPOS>MOLECULE
ASD03090574
  30   31    0    0    0
SMALL
NO_CHARGES


@<TRIPOS>ATOM
   1 N1            -0.0162     1.3436     0.0094 N.am    
   2 C2            -0.2047     0.1129    -0.5066 C.2     
   3 O3             0.6896    -0.4300    -1.1262 O.2     
   4 N4            -1.3844    -0.5161    -0.3359 N.am    
   5 S5            -3.0130    -2.7140    -0.7395 S.3     
   6 C6            -1.5788    -1.7859    -0.8684 C.2     
   7 N7            -0.7034    -2.4647    -1.5467 N.2     
   8 N8            -1.0417    -3.6082    -1.9614 N.2     
   9 C9            -2.2409    -3.9995    -1.6684 C.2     
  10 C10           -2.8648    -5.3166    -2.0520 C.3     
  11 C11            1.2465     1.9474    -0.0616 C.ar    
  12 C12            1.3527     3.3288    -0.2086 C.ar    
  13 C13            2.6028     3.9208    -0.2778 C.ar    
  14 C14            3.7428     3.1416    -0.2017 C.ar    
  15 C15            3.6386     1.7699    -0.0563 C.ar    
  16 C16            2.3933     1.1721     0.0199 C.ar    
  17 O17            0.2311     4.0942    -0.2843 O.3     
  18 C18            0.4161     5.5032    -0.4345 C.3     
  19 Cl19           5.0736     0.7974     0.0381 Cl      
  20 H20           -0.7555     1.8130     0.4265 H       
  21 H21           -2.0978    -0.0830     0.1584 H       
  22 H22           -3.3647    -5.2149    -3.0153 H       
  23 H23           -2.0889    -6.0788    -2.1240 H       
  24 H24           -3.5918    -5.6086    -1.2943 H       
  25 H25            2.6874     4.9915    -0.3917 H       
  26 H26            4.7167     3.6051    -0.2563 H       
  27 H27            2.3143     0.1015     0.1383 H       
  28 H28            0.9770     5.8888     0.4169 H       
  29 H29            0.9684     5.7012    -1.3531 H       
  30 H30           -0.5558     5.9943    -0.4818 H       
@<TRIPOS>BOND
   1    1    2 am
   2    1   11 1
   3    1   20 1
   4    2    3 2
   5    2    4 am
   6    4    6 1
   7    4   21 1
   8    5    6 1
   9    5    9 1
  10    6    7 2
  11    7    8 1
  12    8    9 2
  13    9   10 1
  14   10   22 1
  15   10   23 1
  16   10   24 1
  17   11   12 ar
  18   11   16 ar
  19   12   13 ar
  20   12   17 1
  21   13   14 ar
  22   13   25 1
  23   14   15 ar
  24   14   26 1
  25   15   16 ar
  26   15   19 1
  27   16   27 1
  28   17   18 1
  29   18   28 1
  30   18   29 1
  31   18   30 1

#	End of record

