#	Name: ASD01881114
#	Creating user name:	WinNT
#	Creation time:	15. 06. 2019 19:42

#	Modifying user name:	WinNT
#	Modification time:	15. 06. 2019 19:42

#	Program:	/corina/corina34_cracker 3.40 0067  02.08.2006

@<TRIPOS>MOLECULE
ASD01881114
  38   40    0    0    0
SMALL
NO_CHARGES


@<TRIPOS>ATOM
   1 N1            -0.0158     1.3136     0.0093 N.ar    
   2 C2             0.0021    -0.0041     0.0020 C.ar    
   3 N3             1.1320    -0.6826    -0.0120 N.ar    
   4 C4             2.2987    -0.0578    -0.0198 C.ar    
   5 C5             2.3217     1.3274    -0.0130 C.ar    
   6 C6             1.1124     2.0071     0.0022 C.ar    
   7 C7             3.6286     2.0776    -0.0209 C.3     
   8 O8             4.0296     2.3216    -1.3707 O.3     
   9 C9             5.1949     2.9922    -1.5556 C.ar    
  10 C10            5.6438     3.2631    -2.8449 C.ar    
  11 C11            6.8220     3.9417    -3.0317 C.ar    
  12 C12            7.5775     4.3647    -1.9327 C.ar    
  13 C13            7.1222     4.0902    -0.6386 C.ar    
  14 C14            5.9350     3.4125    -0.4578 C.ar    
  15 C15            7.5740     4.3866    -4.2614 C.3     
  16 N16            8.7776     5.0735    -3.7791 N.am    
  17 C17            8.7752     5.0583    -2.4351 C.2     
  18 O18            9.6392     5.5481    -1.7337 O.2     
  19 C19            3.5851    -0.8427    -0.0353 C.3     
  20 Cl20           8.0470     4.6070     0.7367 Cl      
  21 Br21           1.0755     3.8977     0.0121 Br      
  22 C22            9.4525     7.1375    -4.9041 C.3     
  23 C23            9.8116     5.6769    -4.6235 C.3     
  24 H24           -0.9342    -0.5424     0.0081 H       
  25 H25            3.5053     3.0278     0.4988 H       
  26 H26            4.3914     1.4841     0.4831 H       
  27 H27            5.0657     2.9391    -3.6977 H       
  28 H28            5.5832     3.2009     0.5411 H       
  29 H29            7.8521     3.5218    -4.8638 H       
  30 H30            6.9614     5.0713    -4.8479 H       
  31 H31            3.8858    -1.0271    -1.0666 H       
  32 H32            4.3635    -0.2747     0.4741 H       
  33 H33            3.4364    -1.7941     0.4755 H       
  34 H34            8.4919     7.1834    -5.4171 H       
  35 H35            9.3881     7.6831    -3.9627 H       
  36 H36           10.2218     7.5865    -5.5323 H       
  37 H37           10.7722     5.6310    -4.1104 H       
  38 H38            9.8760     5.1313    -5.5649 H       
@<TRIPOS>BOND
   1    1    2 ar
   2    1    6 ar
   3    2    3 ar
   4    2   24 1
   5    3    4 ar
   6    4    5 ar
   7    4   19 1
   8    5    6 ar
   9    5    7 1
  10    6   21 1
  11    7    8 1
  12    7   25 1
  13    7   26 1
  14    8    9 1
  15    9   10 ar
  16    9   14 ar
  17   10   11 ar
  18   10   27 1
  19   11   12 ar
  20   11   15 1
  21   12   13 ar
  22   12   17 1
  23   13   14 ar
  24   13   20 1
  25   14   28 1
  26   15   16 1
  27   15   29 1
  28   15   30 1
  29   16   17 am
  30   16   23 1
  31   17   18 2
  32   19   31 1
  33   19   32 1
  34   19   33 1
  35   22   23 1
  36   22   34 1
  37   22   35 1
  38   22   36 1
  39   23   37 1
  40   23   38 1

#	End of record

