#	Name: ASD03730954
#	Creating user name:	WinNT
#	Creation time:	15. 06. 2019 20:45

#	Modifying user name:	WinNT
#	Modification time:	15. 06. 2019 20:45

#	Program:	/corina/corina34_cracker 3.40 0067  02.08.2006

@<TRIPOS>MOLECULE
ASD03730954
  62   68    0    0    0
SMALL
NO_CHARGES


@<TRIPOS>ATOM
   1 C1            -0.0183     1.4733     0.0179 C.2     
   2 C2             0.0010    -0.0047     0.0160 C.ar    
   3 C3             1.2173    -0.6900     0.0087 C.ar    
   4 C4             1.2282    -2.0693     0.0069 C.ar    
   5 C5             0.0371    -2.7737     0.0117 C.ar    
   6 C6            -1.1716    -2.1009     0.0185 C.ar    
   7 C7            -1.1966    -0.7213     0.0271 C.ar    
   8 O8             1.0265     2.0949     0.0132 O.2     
   9 N9            -1.1942     2.1319     0.0193 N.am    
  10 C10            2.5402    -2.8107    -0.0009 C.3     
  11 O11           -0.9261    -3.2990     6.2790 O.3     
  12 C12           -0.9733    -3.5482     7.6963 C.3     
  13 O13           -0.0695    -4.6538     7.8798 O.3     
  14 C14            0.8328    -4.5620     6.8588 C.ar    
  15 C15            0.3050    -3.7296     5.8744 C.ar    
  16 C16            2.0825    -5.1297     6.6875 C.ar    
  17 C17            2.8197    -4.8771     5.5346 C.ar    
  18 C18            2.2785    -4.0506     4.5546 C.ar    
  19 C19            1.0353    -3.4781     4.7251 C.ar    
  20 O20            4.0612    -5.3165     5.1798 O.3     
  21 C21            3.2850    -3.9950     3.4366 C.3     
  22 C22            4.2329    -5.1584     3.7582 C.3     
  23 N23            2.9726    -3.0528     1.3777 N.am    
  24 C24            2.6448    -4.1510     2.0873 C.2     
  25 C25            4.0082    -2.6820     3.3843 C.ar    
  26 C26            4.7765    -1.9823     4.2879 C.ar    
  27 C27            5.3243    -0.7623     3.9335 C.ar    
  28 C28            5.0979    -0.2471     2.6701 C.ar    
  29 C29            4.3283    -0.9437     1.7618 C.ar    
  30 C30            3.7732    -2.1727     2.1098 C.ar    
  31 O31            1.9661    -5.0826     1.7098 O.2     
  32 C32           -2.1784     4.2724    -0.5318 C.ar    
  33 C33           -1.2149     3.5278     0.1327 C.ar    
  34 C34           -0.2683     4.1865     0.9149 C.ar    
  35 C35           -0.3276     5.5663     0.9981 C.ar    
  36 C36           -1.3212     6.2445     0.3044 C.ar    
  37 N37           -2.2035     5.5873    -0.4293 N.ar    
  38 O38           -1.3872     7.5983     0.3800 O.3     
  39 C39           -2.4314     8.2390    -0.3557 C.3     
  40 H40            2.1476    -0.1414     0.0042 H       
  41 H41            0.0512    -3.8536     0.0099 H       
  42 H42           -2.0976    -2.6566     0.0219 H       
  43 H43           -2.1409    -0.1972     0.0376 H       
  44 H44           -2.0261     1.6392    -0.0582 H       
  45 H45            2.4160    -3.7637    -0.5153 H       
  46 H46            3.2917    -2.2140    -0.5179 H       
  47 H47           -0.6280    -2.6753     8.2503 H       
  48 H48           -1.9823    -3.8234     8.0033 H       
  49 H49            2.4889    -5.7734     7.4537 H       
  50 H50            0.6302    -2.8322     3.9601 H       
  51 H51            5.2634    -4.8954     3.5196 H       
  52 H52            3.9303    -6.0619     3.2288 H       
  53 H53            4.9518    -2.3865     5.2740 H       
  54 H54            5.9277    -0.2137     4.6416 H       
  55 H55            5.5255     0.7053     2.3935 H       
  56 H56            4.1555    -0.5346     0.7774 H       
  57 H57           -2.9132     3.7704    -1.1438 H       
  58 H58            0.4934     3.6330     1.4440 H       
  59 H59            0.3899     6.1092     1.5954 H       
  60 H60           -2.3704     9.3173    -0.2089 H       
  61 H61           -2.3224     8.0098    -1.4157 H       
  62 H62           -3.3979     7.8785    -0.0035 H       
@<TRIPOS>BOND
   1    1    2 1
   2    1    8 2
   3    1    9 am
   4    2    3 ar
   5    2    7 ar
   6    3    4 ar
   7    3   40 1
   8    4    5 ar
   9    4   10 1
  10    5    6 ar
  11    5   41 1
  12    6    7 ar
  13    6   42 1
  14    7   43 1
  15    9   33 1
  16    9   44 1
  17   10   23 1
  18   10   45 1
  19   10   46 1
  20   11   12 1
  21   11   15 1
  22   12   13 1
  23   12   47 1
  24   12   48 1
  25   13   14 1
  26   14   15 ar
  27   14   16 ar
  28   15   19 ar
  29   16   17 ar
  30   16   49 1
  31   17   18 ar
  32   17   20 1
  33   18   19 ar
  34   18   21 1
  35   19   50 1
  36   20   22 1
  37   21   22 1
  38   21   24 1
  39   21   25 1
  40   22   51 1
  41   22   52 1
  42   23   24 am
  43   23   30 1
  44   24   31 2
  45   25   26 ar
  46   25   30 ar
  47   26   27 ar
  48   26   53 1
  49   27   28 ar
  50   27   54 1
  51   28   29 ar
  52   28   55 1
  53   29   30 ar
  54   29   56 1
  55   32   33 ar
  56   32   37 ar
  57   32   57 1
  58   33   34 ar
  59   34   35 ar
  60   34   58 1
  61   35   36 ar
  62   35   59 1
  63   36   37 ar
  64   36   38 1
  65   38   39 1
  66   39   60 1
  67   39   61 1
  68   39   62 1

#	End of record

