#	Name: ASD01911468
#	Creating user name:	WinNT
#	Creation time:	15. 06. 2019 19:57

#	Modifying user name:	WinNT
#	Modification time:	15. 06. 2019 19:57

#	Program:	/corina/corina34_cracker 3.40 0067  02.08.2006

@<TRIPOS>MOLECULE
ASD01911468
  39   41    0    0    0
SMALL
NO_CHARGES


@<TRIPOS>ATOM
   1 N1            -0.0069     1.4096    -0.0011 N.2     
   2 N2            -0.0072     0.0097    -0.0433 N.pl3   
   3 C3             1.2421     1.8244     0.0378 C.2     
   4 C4             2.0819     0.6980     0.0217 C.2     
   5 C5             1.2897    -0.4114    -0.0285 C.2     
   6 C6             1.7535    -1.8164    -0.0610 C.ar    
   7 C7             1.6868     3.2396     0.0899 C.ar    
   8 C8            -1.1919    -0.8506    -0.0936 C.3     
   9 C9            -1.6320    -1.0163    -1.5253 C.2     
  10 O10           -2.7051    -1.7690    -1.8148 O.3     
  11 O11           -1.0189    -0.4717    -2.4127 O.2     
  12 C12            0.7468     4.2678     0.1014 C.ar    
  13 C13            3.0456     3.5442     0.1330 C.ar    
  14 C14            3.4536     4.8619     0.1813 C.ar    
  15 C15            2.5163     5.8790     0.1873 C.ar    
  16 C16            1.1659     5.5820     0.1499 C.ar    
  17 C17            3.0180    -2.1467     0.4254 C.ar    
  18 C18            3.4463    -3.4624     0.3923 C.ar    
  19 C19            2.6170    -4.4508    -0.1252 C.ar    
  20 C20            1.3616    -4.1234    -0.6082 C.ar    
  21 C21            0.9246    -2.8149    -0.5732 C.ar    
  22 F22            3.0375    -5.7343    -0.1573 F       
  23 O23            4.6785    -3.7882     0.8657 O.3     
  24 C24            5.4776    -2.7222     1.3825 C.3     
  25 H25            3.1616     0.7087     0.0443 H       
  26 H26           -0.9505    -1.8265     0.3276 H       
  27 H27           -1.9966    -0.3949     0.4834 H       
  28 H28           -2.9489    -1.8456    -2.7474 H       
  29 H29           -0.3078     4.0370     0.0722 H       
  30 H30            3.7783     2.7508     0.1291 H       
  31 H31            4.5067     5.0992     0.2148 H       
  32 H32            2.8399     6.9087     0.2255 H       
  33 H33            0.4381     6.3800     0.1547 H       
  34 H34            3.6616    -1.3778     0.8265 H       
  35 H35            0.7209    -4.8947    -1.0096 H       
  36 H36           -0.0553    -2.5625    -0.9507 H       
  37 H37            5.6505    -1.9847     0.5987 H       
  38 H38            4.9586    -2.2506     2.2170 H       
  39 H39            6.4333    -3.1181     1.7261 H       
@<TRIPOS>BOND
   1    1    2 1
   2    1    3 2
   3    2    8 1
   4    2    5 1
   5    3    4 1
   6    3    7 1
   7    4    5 2
   8    4   25 1
   9    5    6 1
  10    6   17 ar
  11    6   21 ar
  12    7   12 ar
  13    7   13 ar
  14    8    9 1
  15    8   26 1
  16    8   27 1
  17    9   10 1
  18    9   11 2
  19   10   28 1
  20   12   16 ar
  21   12   29 1
  22   13   14 ar
  23   13   30 1
  24   14   15 ar
  25   14   31 1
  26   15   16 ar
  27   15   32 1
  28   16   33 1
  29   17   18 ar
  30   17   34 1
  31   18   19 ar
  32   18   23 1
  33   19   20 ar
  34   19   22 1
  35   20   21 ar
  36   20   35 1
  37   21   36 1
  38   23   24 1
  39   24   37 1
  40   24   38 1
  41   24   39 1

#	End of record

