#	Name: ASD02198407
#	Creating user name:	WinNT
#	Creation time:	15. 06. 2019 20:19

#	Modifying user name:	WinNT
#	Modification time:	15. 06. 2019 20:19

#	Program:	/corina/corina34_cracker 3.40 0067  02.08.2006

@<TRIPOS>MOLECULE
ASD02198407
  39   42    0    0    0
SMALL
NO_CHARGES


@<TRIPOS>ATOM
   1 C1            -0.2137     1.0684    -0.3401 C.2     
   2 C2            -0.1175    -0.2752    -0.3555 C.2     
   3 S3             1.3946     1.7698    -0.2168 S.3     
   4 C4             2.1246     0.1701    -0.1924 C.2     
   5 C5             1.1727    -0.7621    -0.2738 C.2     
   6 S6             3.8528    -0.1535    -0.0776 S.o2    
   7 N7             4.4434    -0.2170    -1.6234 N.am    
   8 C8             4.3261     0.8918    -2.4605 C.ar    
   9 C9             4.0870     0.7186    -3.8417 C.ar    
  10 C10            3.9718     1.8628    -4.6683 C.ar    
  11 C11            4.0966     3.1435    -4.1066 C.ar    
  12 C12            4.3276     3.2802    -2.7713 C.ar    
  13 C13            4.4370     2.1653    -1.9458 C.ar    
  14 N14            3.9696    -0.5011    -4.3729 N.ar    
  15 C15            3.7480    -0.6683    -5.6541 C.ar    
  16 C16            3.6246     0.4135    -6.5235 C.ar    
  17 C17            3.7333     1.6879    -6.0450 C.ar    
  18 O18            4.4362     0.9919     0.5281 O.2     
  19 O19            3.9810    -1.4647     0.4551 O.2     
  20 C20           -1.4764     1.8356    -0.4208 C.2     
  21 C21           -1.5161     3.2297    -0.4004 C.2     
  22 C22           -2.6830     1.2458    -0.5259 C.2     
  23 S23           -3.9356     2.4779    -0.5971 S.3     
  24 C24           -2.7348     3.7568    -0.4827 C.2     
  25 C25           -3.0408     5.2324    -0.4773 C.3     
  26 H26           -0.9806    -0.9206    -0.4257 H       
  27 H27            1.3948    -1.8190    -0.2754 H       
  28 H28            4.8708    -1.0256    -1.9465 H       
  29 H29            4.0100     4.0193    -4.7327 H       
  30 H30            4.4230     4.2684    -2.3462 H       
  31 H31            4.6200     2.2995    -0.8899 H       
  32 H32            3.6592    -1.6708    -6.0460 H       
  33 H33            3.4427     0.2443    -7.5745 H       
  34 H34            3.6399     2.5381    -6.7045 H       
  35 H35           -0.6251     3.8352    -0.3233 H       
  36 H36           -2.8546     0.1801    -0.5614 H       
  37 H37           -4.1179     5.3804    -0.5555 H       
  38 H38           -2.6797     5.6749     0.4511 H       
  39 H39           -2.5462     5.7092    -1.3235 H       
@<TRIPOS>BOND
   1    1    2 2
   2    1    3 1
   3    1   20 1
   4    2    5 1
   5    2   26 1
   6    3    4 1
   7    4    5 2
   8    4    6 1
   9    5   27 1
  10    6    7 am
  11    6   18 2
  12    6   19 2
  13    7    8 1
  14    7   28 1
  15    8    9 ar
  16    8   13 ar
  17    9   10 ar
  18    9   14 ar
  19   10   11 ar
  20   10   17 ar
  21   11   12 ar
  22   11   29 1
  23   12   13 ar
  24   12   30 1
  25   13   31 1
  26   14   15 ar
  27   15   16 ar
  28   15   32 1
  29   16   17 ar
  30   16   33 1
  31   17   34 1
  32   20   21 1
  33   20   22 2
  34   21   24 2
  35   21   35 1
  36   22   23 1
  37   22   36 1
  38   23   24 1
  39   24   25 1
  40   25   37 1
  41   25   38 1
  42   25   39 1

#	End of record

