#	Name: ASD03092993
#	Creating user name:	WinNT
#	Creation time:	15. 06. 2019 20:33

#	Modifying user name:	WinNT
#	Modification time:	15. 06. 2019 20:33

#	Program:	/corina/corina34_cracker 3.40 0067  02.08.2006

@<TRIPOS>MOLECULE
ASD03092993
  41   43    0    0    0
SMALL
NO_CHARGES


@<TRIPOS>ATOM
   1 C1            -0.0187     1.5258     0.0104 C.3     
   2 C2             0.0021    -0.0041     0.0020 C.3     
   3 C3             0.7182    -0.4975    -1.2568 C.3     
   4 C4             0.7309    -0.5033     1.2229 C.ar    
   5 C5             2.0535    -0.1572     1.4508 C.ar    
   6 N6             2.6611    -0.6145     2.5338 N.ar    
   7 C7             2.0242    -1.3891     3.3891 C.ar    
   8 N8             0.7669    -1.7387     3.2051 N.ar    
   9 C9             0.0931    -1.3149     2.1478 C.ar    
  10 C10            2.7532    -1.8888     4.6097 C.3     
  11 H11            3.8372    -1.9546     4.5157 H       
  12 C12            2.0531    -2.9443     5.4680 C.3     
  13 C13            2.1846    -1.5069     5.9778 C.3     
  14 H14            1.2833    -0.8943     5.9950 H       
  15 C15            3.1661    -1.2512     7.0925 C.ar    
  16 C16            4.0353    -2.2495     7.4906 C.ar    
  17 C17            4.9356    -2.0150     8.5131 C.ar    
  18 C18            4.9669    -0.7819     9.1371 C.ar    
  19 C19            4.0982     0.2168     8.7383 C.ar    
  20 C20            3.2009    -0.0164     7.7130 C.ar    
  21 S21            6.1136    -0.4832    10.4411 S.o2    
  22 N22            7.4987     0.1059     9.7506 N.am    
  23 O23            5.5708     0.5756    11.2181 O.2     
  24 O24            6.4447    -1.7543    10.9832 O.2     
  25 H25            1.0039     1.9031     0.0027 H       
  26 H26           -0.5459     1.8868    -0.8726 H       
  27 H27           -0.5289     1.8773     0.9072 H       
  28 H28           -1.0205    -0.3814     0.0098 H       
  29 H29            1.7408    -0.1202    -1.2645 H       
  30 H30            0.7330    -1.5874    -1.2628 H       
  31 H31            0.1910    -0.1364    -2.1398 H       
  32 H32            2.5813     0.4768     0.7538 H       
  33 H33           -0.9385    -1.6009     2.0055 H       
  34 H34            1.0652    -3.2772     5.1498 H       
  35 H35            2.6765    -3.7043     5.9390 H       
  36 H36            4.0109    -3.2129     7.0031 H       
  37 H37            5.6142    -2.7952     8.8246 H       
  38 H38            4.1224     1.1801     9.2261 H       
  39 H39            2.5248     0.7650     7.3989 H       
  40 H40            7.5497     0.2219     8.7889 H       
  41 H41            8.2589     0.3348    10.3078 H       
@<TRIPOS>BOND
   1    1    2 1
   2    1   25 1
   3    1   26 1
   4    1   27 1
   5    2    3 1
   6    2    4 1
   7    2   28 1
   8    3   29 1
   9    3   30 1
  10    3   31 1
  11    4    9 ar
  12    4    5 ar
  13    5    6 ar
  14    5   32 1
  15    6    7 ar
  16    7    8 ar
  17    7   10 1
  18    8    9 ar
  19    9   33 1
  20   10   11 1
  21   10   13 1
  22   10   12 1
  23   12   13 1
  24   12   34 1
  25   12   35 1
  26   13   14 1
  27   13   15 1
  28   15   20 ar
  29   15   16 ar
  30   16   17 ar
  31   16   36 1
  32   17   18 ar
  33   17   37 1
  34   18   19 ar
  35   18   21 1
  36   19   20 ar
  37   19   38 1
  38   20   39 1
  39   21   22 am
  40   21   23 2
  41   21   24 2
  42   22   40 1
  43   22   41 1

#	End of record

