#	Name: ASD01816032
#	Creating user name:	WinNT
#	Creation time:	15. 06. 2019 19:34

#	Modifying user name:	WinNT
#	Modification time:	15. 06. 2019 19:34

#	Program:	/corina/corina34_cracker 3.40 0067  02.08.2006

@<TRIPOS>MOLECULE
ASD01816032
  46   50    0    0    0
SMALL
NO_CHARGES


@<TRIPOS>ATOM
   1 C1             0.2356     1.5735     0.5585 C.ar    
   2 C2             0.1764     0.1893     0.5523 C.ar    
   3 C3             1.3159    -0.5623     0.3529 C.ar    
   4 C4             2.5398     0.0673     0.1557 C.ar    
   5 C5             2.5964     1.4710     0.1626 C.ar    
   6 C6             1.4404     2.2177     0.3647 C.ar    
   7 N7             3.6870    -0.6810    -0.0444 N.pl3   
   8 C8             4.8953    -0.1289    -0.2395 C.2     
   9 C9             5.0734     1.2322    -0.2538 C.2     
  10 C10            3.9052     2.1186    -0.0487 C.2     
  11 C11            6.2077     2.1330    -0.4334 C.2     
  12 N12            5.7124     3.3857    -0.3371 N.am    
  13 N13            4.3348     3.3463    -0.1072 N.2     
  14 C14            6.4714     4.5573    -0.4512 C.ar    
  15 O15            7.3700     1.8176    -0.6303 O.2     
  16 C16            3.5779    -2.1419    -0.0427 C.3     
  17 C17            6.7378     5.0948    -1.7033 C.ar    
  18 C18            7.4866     6.2503    -1.8127 C.ar    
  19 C19            7.9721     6.8727    -0.6772 C.ar    
  20 C20            7.7097     6.3415     0.5722 C.ar    
  21 C21            6.9554     5.1882     0.6899 C.ar    
  22 F22            6.6986     4.6692     1.9105 F       
  23 C23            3.7056    -2.6536     1.3690 C.ar    
  24 C24            4.9459    -2.7181     1.9824 C.ar    
  25 N25            5.0639    -3.1655     3.2193 N.ar    
  26 C26            4.0166    -3.5649     3.9146 C.ar    
  27 C27            2.7486    -3.5284     3.3674 C.ar    
  28 C28            2.5832    -3.0601     2.0723 C.ar    
  29 F29            6.0465    -2.3194     1.3080 F       
  30 C30            1.5584    -3.9869     4.1701 C.3     
  31 H31           -0.6647     2.1501     0.7112 H       
  32 H32           -0.7710    -0.3061     0.7052 H       
  33 H33            1.2573    -1.6407     0.3505 H       
  34 H34            1.4855     3.2967     0.3694 H       
  35 H35            5.7496    -0.7726    -0.3887 H       
  36 H36            2.6097    -2.4345    -0.4490 H       
  37 H37            4.3726    -2.5663    -0.6562 H       
  38 H38            6.3600     4.6097    -2.5912 H       
  39 H39            7.6937     6.6683    -2.7868 H       
  40 H40            8.5579     7.7756    -0.7664 H       
  41 H41            8.0906     6.8298     1.4570 H       
  42 H42            4.1520    -3.9251     4.9237 H       
  43 H43            1.6033    -3.0204     1.6200 H       
  44 H44            1.1447    -3.1424     4.7212 H       
  45 H45            0.8001    -4.3889     3.4982 H       
  46 H46            1.8697    -4.7611     4.8714 H       
@<TRIPOS>BOND
   1    1    2 ar
   2    1    6 ar
   3    1   31 1
   4    2    3 ar
   5    2   32 1
   6    3    4 ar
   7    3   33 1
   8    4    5 ar
   9    4    7 1
  10    5    6 ar
  11    5   10 1
  12    6   34 1
  13    7    8 1
  14    7   16 1
  15    8    9 2
  16    8   35 1
  17    9   10 1
  18    9   11 1
  19   10   13 2
  20   11   12 am
  21   11   15 2
  22   12   13 1
  23   12   14 1
  24   14   17 ar
  25   14   21 ar
  26   16   23 1
  27   16   36 1
  28   16   37 1
  29   17   18 ar
  30   17   38 1
  31   18   19 ar
  32   18   39 1
  33   19   20 ar
  34   19   40 1
  35   20   21 ar
  36   20   41 1
  37   21   22 1
  38   23   24 ar
  39   23   28 ar
  40   24   25 ar
  41   24   29 1
  42   25   26 ar
  43   26   27 ar
  44   26   42 1
  45   27   28 ar
  46   27   30 1
  47   28   43 1
  48   30   44 1
  49   30   45 1
  50   30   46 1

#	End of record

