#	Name: ASD01881541
#	Creating user name:	WinNT
#	Creation time:	15. 06. 2019 19:42

#	Modifying user name:	WinNT
#	Modification time:	15. 06. 2019 19:42

#	Program:	/corina/corina34_cracker 3.40 0067  02.08.2006

@<TRIPOS>MOLECULE
ASD01881541
  45   48    0    0    0
SMALL
NO_CHARGES


@<TRIPOS>ATOM
   1 C1            -0.0167     1.3799     0.0096 C.ar    
   2 C2             0.0021    -0.0041     0.0020 C.ar    
   3 C3             1.2349    -0.6437    -0.0132 C.ar    
   4 C4             2.4123     0.1248    -0.0203 C.ar    
   5 N5             2.3383     1.4539    -0.0125 N.ar    
   6 C6             1.1808     2.0781     0.0019 C.ar    
   7 N7             1.6371    -1.9636    -0.0249 N.pl3   
   8 C8             2.9959    -1.9702    -0.0383 C.2     
   9 N9             3.4495    -0.7497    -0.0357 N.2     
  10 C10            0.7623    -3.1387    -0.0227 C.3     
  11 C11            3.8530    -3.2096    -0.0545 C.3     
  12 N12            4.1178    -3.6037    -1.4446 N.3     
  13 C13            5.1368    -4.6592    -1.5073 C.3     
  14 C14            5.4917    -4.9412    -2.9690 C.3     
  15 C15            4.2309    -5.3779    -3.7202 C.3     
  16 C16            3.1685    -4.2820    -3.5985 C.3     
  17 C17            2.8810    -4.0190    -2.1186 C.3     
  18 C18            4.5619    -5.5994    -5.1736 C.ar    
  19 C19            4.3671    -6.8449    -5.7459 C.ar    
  20 C20            4.6710    -7.0473    -7.0815 C.ar    
  21 C21            5.1688    -6.0052    -7.8422 C.ar    
  22 C22            5.3629    -4.7610    -7.2685 C.ar    
  23 C23            5.0546    -4.5575    -5.9368 C.ar    
  24 F24            3.8811    -7.8622    -5.0016 F       
  25 Cl25           5.5507    -6.2581    -9.5167 Cl      
  26 H26           -0.9568     1.9115     0.0170 H       
  27 H27           -0.9170    -0.5712     0.0081 H       
  28 H28            1.1629     3.1579     0.0079 H       
  29 H29            0.5351    -3.4246    -1.0497 H       
  30 H30            1.2642    -3.9644     0.4817 H       
  31 H31           -0.1635    -2.9016     0.5016 H       
  32 H32            4.7966    -3.0054     0.4514 H       
  33 H33            3.3327    -4.0178     0.4595 H       
  34 H34            6.0296    -4.3342    -0.9731 H       
  35 H35            4.7482    -5.5672    -1.0463 H       
  36 H36            5.8934    -4.0373    -3.4269 H       
  37 H37            6.2367    -5.7355    -3.0159 H       
  38 H38            3.8510    -6.3032    -3.2871 H       
  39 H39            3.5336    -3.3677    -4.0663 H       
  40 H40            2.2537    -4.6053    -4.0951 H       
  41 H41            2.5029    -4.9300    -1.6546 H       
  42 H42            2.1353    -3.2291    -2.0282 H       
  43 H43            4.5197    -8.0186    -7.5288 H       
  44 H44            5.7517    -3.9473    -7.8629 H       
  45 H45            5.2064    -3.5860    -5.4900 H       
@<TRIPOS>BOND
   1    1    2 ar
   2    1    6 ar
   3    1   26 1
   4    2    3 ar
   5    2   27 1
   6    3    4 ar
   7    3    7 1
   8    4    5 ar
   9    4    9 1
  10    5    6 ar
  11    6   28 1
  12    7    8 1
  13    7   10 1
  14    8    9 2
  15    8   11 1
  16   10   29 1
  17   10   30 1
  18   10   31 1
  19   11   12 1
  20   11   32 1
  21   11   33 1
  22   12   13 1
  23   12   17 1
  24   13   14 1
  25   13   34 1
  26   13   35 1
  27   14   15 1
  28   14   36 1
  29   14   37 1
  30   15   16 1
  31   15   18 1
  32   15   38 1
  33   16   17 1
  34   16   39 1
  35   16   40 1
  36   17   41 1
  37   17   42 1
  38   18   19 ar
  39   18   23 ar
  40   19   20 ar
  41   19   24 1
  42   20   21 ar
  43   20   43 1
  44   21   22 ar
  45   21   25 1
  46   22   23 ar
  47   22   44 1
  48   23   45 1

#	End of record

