#	Name: ASD05213001
#	Creating user name:	WinNT
#	Creation time:	15. 06. 2019 20:57

#	Modifying user name:	WinNT
#	Modification time:	15. 06. 2019 20:57

#	Program:	/corina/corina34_cracker 3.40 0067  02.08.2006

@<TRIPOS>MOLECULE
ASD05213001
  42   44    0    0    0
SMALL
NO_CHARGES


@<TRIPOS>ATOM
   1 C1            -0.0164     1.3567     0.0095 C.ar    
   2 C2             0.0021    -0.0041     0.0020 C.ar    
   3 C3             1.2327    -0.6827    -0.0133 C.ar    
   4 C4             2.4375     0.0635    -0.0209 C.ar    
   5 C5             2.3784     1.4676    -0.0123 C.ar    
   6 C6             1.1685     2.0906     0.0021 C.ar    
   7 C7             1.2920    -2.0868    -0.0209 C.ar    
   8 C8             2.5019    -2.7096    -0.0354 C.ar    
   9 C9             3.6868    -1.9758    -0.0424 C.ar    
  10 C10            3.6681    -0.6150    -0.0363 C.ar    
  11 C11            3.6482     2.2792    -0.0196 C.3     
  12 C12            4.1248     2.4535    -1.4385 C.2     
  13 N13            5.2506     3.1505    -1.6904 N.am    
  14 C14            5.6892     3.3108    -2.9961 C.2     
  15 S15            4.8992     2.6799    -4.3683 S.3     
  16 C16            6.0986     3.3468    -5.4616 C.2     
  17 C17            7.0327     4.0056    -4.7907 C.2     
  18 C18            6.8144     4.0035    -3.3608 C.2     
  19 C19            8.2008     4.6917    -5.4509 C.3     
  20 C20            6.0710     3.1908    -6.9603 C.3     
  21 C21            7.7067     4.6638    -2.4029 C.2     
  22 O22            7.5125     5.8240    -2.0902 O.2     
  23 N23            8.7420     3.9862    -1.8687 N.am    
  24 O24            3.4954     1.9666    -2.3538 O.2     
  25 H25           -0.9634     1.8758     0.0168 H       
  26 H26           -0.9241    -0.5595     0.0082 H       
  27 H27            1.1259     3.1697     0.0083 H       
  28 H28            0.3820    -2.6686    -0.0149 H       
  29 H29            2.5446    -3.7888    -0.0412 H       
  30 H30            4.6339    -2.4947    -0.0532 H       
  31 H31            4.5942    -0.0594    -0.0422 H       
  32 H32            3.4568     3.2572     0.4222 H       
  33 H33            4.4131     1.7623     0.5598 H       
  34 H34            5.7539     3.5399    -0.9584 H       
  35 H35            7.9306     5.7205    -5.6891 H       
  36 H36            9.0547     4.6878    -4.7735 H       
  37 H37            8.4618     4.1630    -6.3677 H       
  38 H38            5.1977     2.6058    -7.2486 H       
  39 H39            6.0196     4.1745    -7.4270 H       
  40 H40            6.9757     2.6795    -7.2891 H       
  41 H41            8.8967     3.0616    -2.1179 H       
  42 H42            9.3323     4.4230    -1.2350 H       
@<TRIPOS>BOND
   1    1    2 ar
   2    1    6 ar
   3    1   25 1
   4    2    3 ar
   5    2   26 1
   6    3    4 ar
   7    3    7 ar
   8    4    5 ar
   9    4   10 ar
  10    5    6 ar
  11    5   11 1
  12    6   27 1
  13    7    8 ar
  14    7   28 1
  15    8    9 ar
  16    8   29 1
  17    9   10 ar
  18    9   30 1
  19   10   31 1
  20   11   12 1
  21   11   32 1
  22   11   33 1
  23   12   13 am
  24   12   24 2
  25   13   14 1
  26   13   34 1
  27   14   15 1
  28   14   18 2
  29   15   16 1
  30   16   17 2
  31   16   20 1
  32   17   18 1
  33   17   19 1
  34   18   21 1
  35   19   35 1
  36   19   36 1
  37   19   37 1
  38   20   38 1
  39   20   39 1
  40   20   40 1
  41   21   22 2
  42   21   23 am
  43   23   41 1
  44   23   42 1

#	End of record

