#	Name: ASD00069235
#	Creating user name:	WinNT
#	Creation time:	15. 06. 2019 18:29

#	Modifying user name:	WinNT
#	Modification time:	15. 06. 2019 18:29

#	Program:	/corina/corina34_cracker 3.40 0067  02.08.2006

@<TRIPOS>MOLECULE
ASD00069235
  33   33    0    0    0
SMALL
NO_CHARGES


@<TRIPOS>ATOM
   1 C1            -0.0158     1.3137     0.0093 C.2     
   2 N2             0.0021    -0.0041     0.0020 N.2     
   3 C3             1.2639    -0.4216    -0.0123 C.2     
   4 C4             2.0752     0.6684    -0.0142 C.2     
   5 N5             1.2772     1.7600    -0.0007 N.pl3   
   6 C6            -1.2186     2.1587     0.0198 C.2     
   7 O7            -2.3286     1.6432     0.0230 O.co2   
   8 O8            -1.1101     3.3777     0.0254 O.co2   
   9 C9             1.7151     3.1580     0.0026 C.3     
  10 O10            3.1431     3.2099    -0.0107 O.3     
  11 C11            3.6766     4.5356    -0.0087 C.3     
  12 C12            5.2052     4.4702    -0.0236 C.3     
  13 Si13           5.9007     6.1985    -0.0210 Si      
  14 C14            5.3324     7.0943     1.5105 C.3     
  15 C15            7.7619     6.1189    -0.0392 C.3     
  16 C16            5.3034     7.1106    -1.5316 C.3     
  17 Br17           1.8330    -2.2249    -0.0268 Br      
  18 H18            3.1551     0.6638    -0.0242 H       
  19 H19            1.3249     3.6631    -0.8810 H       
  20 H20            1.3419     3.6536     0.8989 H       
  21 H21            3.3271     5.0692    -0.8925 H       
  22 H22            3.3441     5.0597     0.8873 H       
  23 H23            5.5547     3.9365     0.8602 H       
  24 H24            5.5377     3.9461    -0.9197 H       
  25 H25            5.6819     6.5606     2.3943 H       
  26 H26            5.7393     8.1054     1.5120 H       
  27 H27            4.2434     7.1408     1.5211 H       
  28 H28            8.0944     5.5948    -0.9352 H       
  29 H29            8.1689     7.1301    -0.0376 H       
  30 H30            8.1114     5.5852     0.8446 H       
  31 H31            4.2144     7.1572    -1.5210 H       
  32 H32            5.7103     8.1218    -1.5301 H       
  33 H33            5.6359     6.5865    -2.4276 H       
@<TRIPOS>BOND
   1    1    2 2
   2    1    5 1
   3    1    6 1
   4    2    3 1
   5    3    4 2
   6    3   17 1
   7    4    5 1
   8    4   18 1
   9    5    9 1
  10    6    7 ar
  11    6    8 ar
  12    9   10 1
  13    9   19 1
  14    9   20 1
  15   10   11 1
  16   11   12 1
  17   11   21 1
  18   11   22 1
  19   12   13 1
  20   12   23 1
  21   12   24 1
  22   13   14 1
  23   13   15 1
  24   13   16 1
  25   14   25 1
  26   14   26 1
  27   14   27 1
  28   15   28 1
  29   15   29 1
  30   15   30 1
  31   16   31 1
  32   16   32 1
  33   16   33 1

#	End of record

